14575144
     RDKit          3D

 23 24  0  0  0  0  0  0  0  0999 V2000
    1.8756   -0.7364    2.0264 Cl  0  0  0  0  0  0  0  0  0  0  0  0
    2.8820    1.3887    0.2130 N   0  0  0  0  0  0  0  0  0  0  0  0
    3.0550    1.9331    3.3995 N   0  0  0  0  0  0  0  0  0  0  0  0
    1.3160    0.9749    2.0132 C   0  0  2  0  0  0  0  0  0  0  0  0
    1.6760    1.6819    0.7489 C   0  0  0  0  0  0  0  0  0  0  0  0
    1.7433    1.6961    3.2867 C   0  0  0  0  0  0  0  0  0  0  0  0
    0.7802    2.5834    0.1969 C   0  0  0  0  0  0  0  0  0  0  0  0
    0.7739    2.0361    4.1935 C   0  0  0  0  0  0  0  0  0  0  0  0
    1.1457    3.2251   -0.9811 C   0  0  0  0  0  0  0  0  0  0  0  0
    1.1963    2.6927    5.3440 C   0  0  0  0  0  0  0  0  0  0  0  0
    2.3784    2.9498   -1.5629 C   0  0  0  0  0  0  0  0  0  0  0  0
    2.5470    2.9699    5.5234 C   0  0  0  0  0  0  0  0  0  0  0  0
    3.2026    2.0320   -0.9320 C   0  0  0  0  0  0  0  0  0  0  0  0
    3.4281    2.5727    4.5306 C   0  0  0  0  0  0  0  0  0  0  0  0
    0.2245    0.8634    2.0255 H   0  0  0  0  0  0  0  0  0  0  0  0
   -0.1788    2.7948    0.6578 H   0  0  0  0  0  0  0  0  0  0  0  0
   -0.2764    1.8155    4.0443 H   0  0  0  0  0  0  0  0  0  0  0  0
    0.4717    3.9391   -1.4449 H   0  0  0  0  0  0  0  0  0  0  0  0
    0.4743    2.9879    6.0995 H   0  0  0  0  0  0  0  0  0  0  0  0
    2.6842    3.4384   -2.4809 H   0  0  0  0  0  0  0  0  0  0  0  0
    2.8989    3.4807    6.4124 H   0  0  0  0  0  0  0  0  0  0  0  0
    4.1743    1.7823   -1.3450 H   0  0  0  0  0  0  0  0  0  0  0  0
    4.4919    2.7653    4.6225 H   0  0  0  0  0  0  0  0  0  0  0  0
  1  4  1  0
  2  5  1  0
  2 13  2  0
  3  6  1  0
  3 14  2  0
  4  5  1  0
  4  6  1  0
  4 15  1  1
  5  7  2  0
  6  8  2  0
  7  9  1  0
  7 16  1  0
  8 10  1  0
  8 17  1  0
  9 11  2  0
  9 18  1  0
 10 12  2  0
 10 19  1  0
 11 13  1  0
 11 20  1  0
 12 14  1  0
 12 21  1  0
 13 22  1  0
 14 23  1  0
M  END
>  <PUBCHEM_COMPOUND_CID>  (1) 
14575144

>  <PUBCHEM_CONFORMER_RMSD>  (1) 
0.6

>  <PUBCHEM_CONFORMER_DIVERSEORDER>  (1) 
1
17
9
3
12
2
5
16
6
14
15
11
7
10
8
13
4

>  <PUBCHEM_MMFF94_PARTIAL_CHARGES>  (1) 
22
1 -0.29
10 -0.15
11 -0.15
12 -0.15
13 0.16
14 0.16
16 0.15
17 0.15
18 0.15
19 0.15
2 -0.62
20 0.15
21 0.15
22 0.15
23 0.15
3 -0.62
4 0.58
5 0.17
6 0.17
7 -0.15
8 -0.15
9 -0.15

>  <PUBCHEM_EFFECTIVE_ROTOR_COUNT>  (1) 
2

>  <PUBCHEM_PHARMACOPHORE_FEATURES>  (1) 
4
1 2 acceptor
1 3 acceptor
6 2 5 7 9 11 13 rings
6 3 6 8 10 12 14 rings

>  <PUBCHEM_HEAVY_ATOM_COUNT>  (1) 
14

>  <PUBCHEM_ATOM_DEF_STEREO_COUNT>  (1) 
0

>  <PUBCHEM_ATOM_UDEF_STEREO_COUNT>  (1) 
0

>  <PUBCHEM_BOND_DEF_STEREO_COUNT>  (1) 
0

>  <PUBCHEM_BOND_UDEF_STEREO_COUNT>  (1) 
0

>  <PUBCHEM_ISOTOPIC_ATOM_COUNT>  (1) 
0

>  <PUBCHEM_COMPONENT_COUNT>  (1) 
1

>  <PUBCHEM_CACTVS_TAUTO_COUNT>  (1) 
1

>  <PUBCHEM_CONFORMER_ID>  (1) 
00DE662800000001

>  <PUBCHEM_MMFF94_ENERGY>  (1) 
36.4776

>  <PUBCHEM_FEATURE_SELFOVERLAP>  (1) 
20.297

>  <PUBCHEM_SHAPE_FINGERPRINT>  (1) 
10618630 7 18334858277516157270
11031198 65 9222962490585921581
12251169 10 16343981433429632231
124424 183 15984828081882888867
12553582 1 18408606963155188551
12696612 119 16056873680230146632
12897270 3 15068624898101526494
13296908 3 18335129903895371005
13299463 15 15936414437428276488
13581323 91 17203332229882685079
13705890 14 16298104289713110038
15375462 189 18114471118666714592
15653759 3 16917353623184618306
15906896 17 17754452361575941237
16945 1 17132117930924196717
17134986 127 13193666095221012015
17804303 29 17060075717153600055
17844478 74 17632292337810728496
18186145 218 7925636630481805706
18522851 268 15574437634595561651
19049666 15 16198486216479420052
19422 9 18260562107657566086
200 152 17603303739403396226
20201158 50 16370722617026659219
20281407 28 18343582906587875350
20361792 2 18408599283885324453
20645464 45 15123799487285276839
21713013 43 16298392383034412299
21731516 1 18335136496670001341
22112679 90 18268450004107483741
22169311 14 16558756693304413679
23402539 116 18187649064231202382
23402655 69 15068612760571771902
25 1 11747208005447535412
305870 269 9439137437104986980
465052 167 18190194541108718971
7364860 26 17984987247770479681
74978 22 18336828722859993119
81228 2 18194394498615551381

>  <PUBCHEM_SHAPE_MULTIPOLES>  (1) 
280.02
6.15
1.65
1.37
0.07
1.43
0.1
-3.45
0.57
-0.14
-0.05
0.12
-0.23
-0.43

>  <PUBCHEM_SHAPE_SELFOVERLAP>  (1) 
590.875

>  <PUBCHEM_SHAPE_VOLUME>  (1) 
156.7

>  <PUBCHEM_COORDINATE_TYPE>  (1) 
2
5
10

$$$$
