14575144
  -OEChem-02222403183D

 23 24  0     0  0  0  0  0  0999 V2000
    0.0264    2.7364   -0.1244 Cl  0  0  0  0  0  0  0  0  0  0  0  0
   -1.7870    0.6113    0.8820 N   0  0  0  0  0  0  0  0  0  0  0  0
    1.3995    0.0669    1.0550 N   0  0  0  0  0  0  0  0  0  0  0  0
    0.0132    1.0251   -0.6840 C   0  0  0  0  0  0  0  0  0  0  0  0
   -1.2511    0.3181   -0.3240 C   0  0  0  0  0  0  0  0  0  0  0  0
    1.2867    0.3039   -0.2567 C   0  0  0  0  0  0  0  0  0  0  0  0
   -1.8031   -0.5834   -1.2198 C   0  0  0  0  0  0  0  0  0  0  0  0
    2.1935   -0.0361   -1.2261 C   0  0  0  0  0  0  0  0  0  0  0  0
   -2.9811   -1.2251   -0.8543 C   0  0  0  0  0  0  0  0  0  0  0  0
    3.3440   -0.6927   -0.8037 C   0  0  0  0  0  0  0  0  0  0  0  0
   -3.5629   -0.9498    0.3784 C   0  0  0  0  0  0  0  0  0  0  0  0
    3.5234   -0.9699    0.5470 C   0  0  0  0  0  0  0  0  0  0  0  0
   -2.9320   -0.0320    1.2026 C   0  0  0  0  0  0  0  0  0  0  0  0
    2.5306   -0.5727    1.4281 C   0  0  0  0  0  0  0  0  0  0  0  0
    0.0255    1.1366   -1.7755 H   0  0  0  0  0  0  0  0  0  0  0  0
   -1.3422   -0.7948   -2.1788 H   0  0  0  0  0  0  0  0  0  0  0  0
    2.0443    0.1845   -2.2764 H   0  0  0  0  0  0  0  0  0  0  0  0
   -3.4449   -1.9391   -1.5283 H   0  0  0  0  0  0  0  0  0  0  0  0
    4.0995   -0.9879   -1.5257 H   0  0  0  0  0  0  0  0  0  0  0  0
   -4.4809   -1.4384    0.6842 H   0  0  0  0  0  0  0  0  0  0  0  0
    4.4124   -1.4807    0.8989 H   0  0  0  0  0  0  0  0  0  0  0  0
   -3.3450    0.2177    2.1743 H   0  0  0  0  0  0  0  0  0  0  0  0
    2.6225   -0.7653    2.4919 H   0  0  0  0  0  0  0  0  0  0  0  0
  1  4  1  0  0  0  0
  2  5  1  0  0  0  0
  2 13  2  0  0  0  0
  3  6  1  0  0  0  0
  3 14  2  0  0  0  0
  4  5  1  0  0  0  0
  4  6  1  0  0  0  0
  4 15  1  0  0  0  0
  5  7  2  0  0  0  0
  6  8  2  0  0  0  0
  7  9  1  0  0  0  0
  7 16  1  0  0  0  0
  8 10  1  0  0  0  0
  8 17  1  0  0  0  0
  9 11  2  0  0  0  0
  9 18  1  0  0  0  0
 10 12  2  0  0  0  0
 10 19  1  0  0  0  0
 11 13  1  0  0  0  0
 11 20  1  0  0  0  0
 12 14  1  0  0  0  0
 12 21  1  0  0  0  0
 13 22  1  0  0  0  0
 14 23  1  0  0  0  0
M  END
> <PUBCHEM_COMPOUND_CID>
14575144

> <PUBCHEM_CONFORMER_RMSD>
0.6

> <PUBCHEM_CONFORMER_DIVERSEORDER>
1
17
9
3
12
2
5
16
6
14
15
11
7
10
8
13
4

> <PUBCHEM_MMFF94_PARTIAL_CHARGES>
22
1 -0.29
10 -0.15
11 -0.15
12 -0.15
13 0.16
14 0.16
16 0.15
17 0.15
18 0.15
19 0.15
2 -0.62
20 0.15
21 0.15
22 0.15
23 0.15
3 -0.62
4 0.58
5 0.17
6 0.17
7 -0.15
8 -0.15
9 -0.15

> <PUBCHEM_EFFECTIVE_ROTOR_COUNT>
2

> <PUBCHEM_PHARMACOPHORE_FEATURES>
4
1 2 acceptor
1 3 acceptor
6 2 5 7 9 11 13 rings
6 3 6 8 10 12 14 rings

> <PUBCHEM_HEAVY_ATOM_COUNT>
14

> <PUBCHEM_ATOM_DEF_STEREO_COUNT>
0

> <PUBCHEM_ATOM_UDEF_STEREO_COUNT>
0

> <PUBCHEM_BOND_DEF_STEREO_COUNT>
0

> <PUBCHEM_BOND_UDEF_STEREO_COUNT>
0

> <PUBCHEM_ISOTOPIC_ATOM_COUNT>
0

> <PUBCHEM_COMPONENT_COUNT>
1

> <PUBCHEM_CACTVS_TAUTO_COUNT>
1

> <PUBCHEM_CONFORMER_ID>
00DE662800000001

> <PUBCHEM_MMFF94_ENERGY>
36.4776

> <PUBCHEM_FEATURE_SELFOVERLAP>
20.297

> <PUBCHEM_SHAPE_FINGERPRINT>
10618630 7 18334858277516157270
11031198 65 9222962490585921581
12251169 10 16343981433429632231
124424 183 15984828081882888867
12553582 1 18408606963155188551
12696612 119 16056873680230146632
12897270 3 15068624898101526494
13296908 3 18335129903895371005
13299463 15 15936414437428276488
13581323 91 17203332229882685079
13705890 14 16298104289713110038
15375462 189 18114471118666714592
15653759 3 16917353623184618306
15906896 17 17754452361575941237
16945 1 17132117930924196717
17134986 127 13193666095221012015
17804303 29 17060075717153600055
17844478 74 17632292337810728496
18186145 218 7925636630481805706
18522851 268 15574437634595561651
19049666 15 16198486216479420052
19422 9 18260562107657566086
200 152 17603303739403396226
20201158 50 16370722617026659219
20281407 28 18343582906587875350
20361792 2 18408599283885324453
20645464 45 15123799487285276839
21713013 43 16298392383034412299
21731516 1 18335136496670001341
22112679 90 18268450004107483741
22169311 14 16558756693304413679
23402539 116 18187649064231202382
23402655 69 15068612760571771902
25 1 11747208005447535412
305870 269 9439137437104986980
465052 167 18190194541108718971
7364860 26 17984987247770479681
74978 22 18336828722859993119
81228 2 18194394498615551381

> <PUBCHEM_SHAPE_MULTIPOLES>
280.02
6.15
1.65
1.37
0.07
1.43
0.1
-3.45
0.57
-0.14
-0.05
0.12
-0.23
-0.43

> <PUBCHEM_SHAPE_SELFOVERLAP>
590.875

> <PUBCHEM_SHAPE_VOLUME>
156.7

> <PUBCHEM_COORDINATE_TYPE>
2
5
10

$$$$
