154100868
     RDKit          3D

  9  8  0  0  1  0  0  0  0  0999 V2000
   -1.7845   -0.5432   -0.1241 Br  0  0  0  0  0  0  0  0  0  0  0  0
    1.1524   -1.2948   -0.2344 Cl  0  0  0  0  0  0  0  0  0  0  0  0
    0.2668    0.5951    1.3295 O   0  0  0  0  0  0  0  0  0  0  0  0
    0.0570    0.0762    0.0268 C   0  0  2  0  0  0  0  0  0  0  0  0
    0.3083    1.1667   -0.9978 C   0  0  2  0  0  0  0  0  0  0  0  0
    0.1461    0.8176   -2.0236 H   0  0  0  0  0  0  0  0  0  0  0  0
    1.3331    1.5486   -0.9217 H   0  0  0  0  0  0  0  0  0  0  0  0
   -0.3503    2.0264   -0.8255 H   0  0  0  0  0  0  0  0  0  0  0  0
    1.2241    0.7316    1.4307 H   0  0  0  0  0  0  0  0  0  0  0  0
  1  4  1  0
  4  2  1  6
  3  4  1  0
  3  9  1  0
  4  5  1  0
  5  6  1  6
  5  7  1  0
  5  8  1  0
M  END
>  <PUBCHEM_COMPOUND_CID>  (1) 
154100868

>  <PUBCHEM_CONFORMER_RMSD>  (1) 
0.4

>  <PUBCHEM_CONFORMER_DIVERSEORDER>  (1) 
1
2

>  <PUBCHEM_MMFF94_PARTIAL_CHARGES>  (1) 
5
1 -0.23
2 -0.29
3 -0.68
4 0.8
9 0.4

>  <PUBCHEM_EFFECTIVE_ROTOR_COUNT>  (1) 
0

>  <PUBCHEM_PHARMACOPHORE_FEATURES>  (1) 
4
1 1 hydrophobe
1 3 acceptor
1 3 donor
3 1 4 5 hydrophobe

>  <PUBCHEM_HEAVY_ATOM_COUNT>  (1) 
5

>  <PUBCHEM_ATOM_DEF_STEREO_COUNT>  (1) 
0

>  <PUBCHEM_ATOM_UDEF_STEREO_COUNT>  (1) 
1

>  <PUBCHEM_BOND_DEF_STEREO_COUNT>  (1) 
0

>  <PUBCHEM_BOND_UDEF_STEREO_COUNT>  (1) 
0

>  <PUBCHEM_ISOTOPIC_ATOM_COUNT>  (1) 
0

>  <PUBCHEM_COMPONENT_COUNT>  (1) 
1

>  <PUBCHEM_CACTVS_TAUTO_COUNT>  (1) 
-1

>  <PUBCHEM_CONFORMER_ID>  (1) 
092F648400000001

>  <PUBCHEM_MMFF94_ENERGY>  (1) 
3.6661

>  <PUBCHEM_FEATURE_SELFOVERLAP>  (1) 
21.236

>  <PUBCHEM_SHAPE_FINGERPRINT>  (1) 
20096714 4 16955061580849683173
21015797 1 11662016955358450808
5943 1 16314095844082345320

>  <PUBCHEM_SHAPE_MULTIPOLES>  (1) 
104.84
1.75
1.39
1.08
0.97
0.01
-0.3
-0.62
0.24
-0.46
0.34
-0.12
0.23
0.01

>  <PUBCHEM_SHAPE_SELFOVERLAP>  (1) 
163.526

>  <PUBCHEM_SHAPE_VOLUME>  (1) 
78.3

>  <PUBCHEM_COORDINATE_TYPE>  (1) 
2
5
10

$$$$
154100868
     RDKit          3D

  9  8  0  0  1  0  0  0  0  0999 V2000
    1.7845   -0.5432   -0.1241 Br  0  0  0  0  0  0  0  0  0  0  0  0
   -1.1524   -1.2948   -0.2344 Cl  0  0  0  0  0  0  0  0  0  0  0  0
   -0.2668    0.5951    1.3295 O   0  0  0  0  0  0  0  0  0  0  0  0
   -0.0570    0.0762    0.0268 C   0  0  1  0  0  0  0  0  0  0  0  0
   -0.3083    1.1667   -0.9978 C   0  0  1  0  0  0  0  0  0  0  0  0
   -0.1461    0.8176   -2.0236 H   0  0  0  0  0  0  0  0  0  0  0  0
   -1.3331    1.5486   -0.9217 H   0  0  0  0  0  0  0  0  0  0  0  0
    0.3503    2.0264   -0.8255 H   0  0  0  0  0  0  0  0  0  0  0  0
   -1.2241    0.7316    1.4307 H   0  0  0  0  0  0  0  0  0  0  0  0
  1  4  1  0
  4  2  1  1
  3  4  1  0
  3  9  1  0
  4  5  1  0
  5  6  1  1
  5  7  1  0
  5  8  1  0
M  END
>  <PUBCHEM_COMPOUND_CID>  (2) 
154100868

>  <PUBCHEM_CONFORMER_RMSD>  (2) 
0.4

>  <PUBCHEM_CONFORMER_DIVERSEORDER>  (2) 
1
2

>  <PUBCHEM_MMFF94_PARTIAL_CHARGES>  (2) 
5
1 -0.23
2 -0.29
3 -0.68
4 0.8
9 0.4

>  <PUBCHEM_EFFECTIVE_ROTOR_COUNT>  (2) 
0

>  <PUBCHEM_PHARMACOPHORE_FEATURES>  (2) 
4
1 1 hydrophobe
1 3 acceptor
1 3 donor
3 1 4 5 hydrophobe

>  <PUBCHEM_HEAVY_ATOM_COUNT>  (2) 
5

>  <PUBCHEM_ATOM_DEF_STEREO_COUNT>  (2) 
0

>  <PUBCHEM_ATOM_UDEF_STEREO_COUNT>  (2) 
1

>  <PUBCHEM_BOND_DEF_STEREO_COUNT>  (2) 
0

>  <PUBCHEM_BOND_UDEF_STEREO_COUNT>  (2) 
0

>  <PUBCHEM_ISOTOPIC_ATOM_COUNT>  (2) 
0

>  <PUBCHEM_COMPONENT_COUNT>  (2) 
1

>  <PUBCHEM_CACTVS_TAUTO_COUNT>  (2) 
-1

>  <PUBCHEM_CONFORMER_ID>  (2) 
092F648400000001

>  <PUBCHEM_MMFF94_ENERGY>  (2) 
3.6661

>  <PUBCHEM_FEATURE_SELFOVERLAP>  (2) 
21.236

>  <PUBCHEM_SHAPE_FINGERPRINT>  (2) 
20096714 4 16955061580849683173
21015797 1 11662016955358450808
5943 1 16314095844082345320

>  <PUBCHEM_SHAPE_MULTIPOLES>  (2) 
104.84
1.75
1.39
1.08
0.97
0.01
-0.3
-0.62
0.24
-0.46
0.34
-0.12
0.23
0.01

>  <PUBCHEM_SHAPE_SELFOVERLAP>  (2) 
163.526

>  <PUBCHEM_SHAPE_VOLUME>  (2) 
78.3

>  <PUBCHEM_COORDINATE_TYPE>  (2) 
2
5
10

$$$$
154100868
     RDKit          3D

  9  8  0  0  1  0  0  0  0  0999 V2000
   -1.7845    0.5432   -0.1241 Br  0  0  0  0  0  0  0  0  0  0  0  0
    1.1524    1.2948   -0.2344 Cl  0  0  0  0  0  0  0  0  0  0  0  0
    0.2668   -0.5951    1.3295 O   0  0  0  0  0  0  0  0  0  0  0  0
    0.0570   -0.0762    0.0268 C   0  0  1  0  0  0  0  0  0  0  0  0
    0.3083   -1.1667   -0.9978 C   0  0  1  0  0  0  0  0  0  0  0  0
    0.1461   -0.8176   -2.0236 H   0  0  0  0  0  0  0  0  0  0  0  0
    1.3331   -1.5486   -0.9217 H   0  0  0  0  0  0  0  0  0  0  0  0
   -0.3503   -2.0264   -0.8255 H   0  0  0  0  0  0  0  0  0  0  0  0
    1.2241   -0.7316    1.4307 H   0  0  0  0  0  0  0  0  0  0  0  0
  1  4  1  0
  4  2  1  1
  3  4  1  0
  3  9  1  0
  4  5  1  0
  5  6  1  1
  5  7  1  0
  5  8  1  0
M  END
>  <PUBCHEM_COMPOUND_CID>  (3) 
154100868

>  <PUBCHEM_CONFORMER_RMSD>  (3) 
0.4

>  <PUBCHEM_CONFORMER_DIVERSEORDER>  (3) 
1
2

>  <PUBCHEM_MMFF94_PARTIAL_CHARGES>  (3) 
5
1 -0.23
2 -0.29
3 -0.68
4 0.8
9 0.4

>  <PUBCHEM_EFFECTIVE_ROTOR_COUNT>  (3) 
0

>  <PUBCHEM_PHARMACOPHORE_FEATURES>  (3) 
4
1 1 hydrophobe
1 3 acceptor
1 3 donor
3 1 4 5 hydrophobe

>  <PUBCHEM_HEAVY_ATOM_COUNT>  (3) 
5

>  <PUBCHEM_ATOM_DEF_STEREO_COUNT>  (3) 
0

>  <PUBCHEM_ATOM_UDEF_STEREO_COUNT>  (3) 
1

>  <PUBCHEM_BOND_DEF_STEREO_COUNT>  (3) 
0

>  <PUBCHEM_BOND_UDEF_STEREO_COUNT>  (3) 
0

>  <PUBCHEM_ISOTOPIC_ATOM_COUNT>  (3) 
0

>  <PUBCHEM_COMPONENT_COUNT>  (3) 
1

>  <PUBCHEM_CACTVS_TAUTO_COUNT>  (3) 
-1

>  <PUBCHEM_CONFORMER_ID>  (3) 
092F648400000001

>  <PUBCHEM_MMFF94_ENERGY>  (3) 
3.6661

>  <PUBCHEM_FEATURE_SELFOVERLAP>  (3) 
21.236

>  <PUBCHEM_SHAPE_FINGERPRINT>  (3) 
20096714 4 16955061580849683173
21015797 1 11662016955358450808
5943 1 16314095844082345320

>  <PUBCHEM_SHAPE_MULTIPOLES>  (3) 
104.84
1.75
1.39
1.08
0.97
0.01
-0.3
-0.62
0.24
-0.46
0.34
-0.12
0.23
0.01

>  <PUBCHEM_SHAPE_SELFOVERLAP>  (3) 
163.526

>  <PUBCHEM_SHAPE_VOLUME>  (3) 
78.3

>  <PUBCHEM_COORDINATE_TYPE>  (3) 
2
5
10

$$$$
154100868
     RDKit          3D

  9  8  0  0  1  0  0  0  0  0999 V2000
   -1.7845   -0.5432    0.1241 Br  0  0  0  0  0  0  0  0  0  0  0  0
    1.1524   -1.2948    0.2344 Cl  0  0  0  0  0  0  0  0  0  0  0  0
    0.2668    0.5951   -1.3295 O   0  0  0  0  0  0  0  0  0  0  0  0
    0.0570    0.0762   -0.0268 C   0  0  1  0  0  0  0  0  0  0  0  0
    0.3083    1.1667    0.9978 C   0  0  1  0  0  0  0  0  0  0  0  0
    0.1461    0.8176    2.0236 H   0  0  0  0  0  0  0  0  0  0  0  0
    1.3331    1.5486    0.9217 H   0  0  0  0  0  0  0  0  0  0  0  0
   -0.3503    2.0264    0.8255 H   0  0  0  0  0  0  0  0  0  0  0  0
    1.2241    0.7316   -1.4307 H   0  0  0  0  0  0  0  0  0  0  0  0
  1  4  1  0
  4  2  1  6
  3  4  1  0
  3  9  1  0
  4  5  1  0
  5  6  1  6
  5  7  1  0
  5  8  1  0
M  END
>  <PUBCHEM_COMPOUND_CID>  (4) 
154100868

>  <PUBCHEM_CONFORMER_RMSD>  (4) 
0.4

>  <PUBCHEM_CONFORMER_DIVERSEORDER>  (4) 
1
2

>  <PUBCHEM_MMFF94_PARTIAL_CHARGES>  (4) 
5
1 -0.23
2 -0.29
3 -0.68
4 0.8
9 0.4

>  <PUBCHEM_EFFECTIVE_ROTOR_COUNT>  (4) 
0

>  <PUBCHEM_PHARMACOPHORE_FEATURES>  (4) 
4
1 1 hydrophobe
1 3 acceptor
1 3 donor
3 1 4 5 hydrophobe

>  <PUBCHEM_HEAVY_ATOM_COUNT>  (4) 
5

>  <PUBCHEM_ATOM_DEF_STEREO_COUNT>  (4) 
0

>  <PUBCHEM_ATOM_UDEF_STEREO_COUNT>  (4) 
1

>  <PUBCHEM_BOND_DEF_STEREO_COUNT>  (4) 
0

>  <PUBCHEM_BOND_UDEF_STEREO_COUNT>  (4) 
0

>  <PUBCHEM_ISOTOPIC_ATOM_COUNT>  (4) 
0

>  <PUBCHEM_COMPONENT_COUNT>  (4) 
1

>  <PUBCHEM_CACTVS_TAUTO_COUNT>  (4) 
-1

>  <PUBCHEM_CONFORMER_ID>  (4) 
092F648400000001

>  <PUBCHEM_MMFF94_ENERGY>  (4) 
3.6661

>  <PUBCHEM_FEATURE_SELFOVERLAP>  (4) 
21.236

>  <PUBCHEM_SHAPE_FINGERPRINT>  (4) 
20096714 4 16955061580849683173
21015797 1 11662016955358450808
5943 1 16314095844082345320

>  <PUBCHEM_SHAPE_MULTIPOLES>  (4) 
104.84
1.75
1.39
1.08
0.97
0.01
-0.3
-0.62
0.24
-0.46
0.34
-0.12
0.23
0.01

>  <PUBCHEM_SHAPE_SELFOVERLAP>  (4) 
163.526

>  <PUBCHEM_SHAPE_VOLUME>  (4) 
78.3

>  <PUBCHEM_COORDINATE_TYPE>  (4) 
2
5
10

$$$$
