129629440
     RDKit          3D

 15 14  0  0  0  0  0  0  0  0999 V2000
    2.5961    0.4864   -0.3485 Br  0  0  0  0  0  0  0  0  0  0  0  0
    0.9327   -1.9888    0.1794 Cl  0  0  0  0  0  0  0  0  0  0  0  0
   -1.5637   -0.1546    0.5479 C   0  0  1  0  0  0  0  0  0  0  0  0
   -0.2206    0.4671    0.1988 C   0  0  0  0  0  0  0  0  0  0  0  0
   -2.3660   -0.5311   -0.6901 C   0  0  1  0  0  0  0  0  0  0  0  0
   -0.2900    1.9740    0.0809 C   0  0  2  0  0  0  0  0  0  0  0  0
    0.9115   -0.2529    0.0316 C   0  0  0  0  0  0  0  0  0  0  0  0
   -1.4367   -1.0401    1.1808 H   0  0  0  0  0  0  0  0  0  0  0  0
   -2.1466    0.5462    1.1589 H   0  0  0  0  0  0  0  0  0  0  0  0
   -2.5730    0.3459   -1.3121 H   0  0  0  0  0  0  0  0  0  0  0  0
   -1.8346   -1.2657   -1.3037 H   0  0  0  0  0  0  0  0  0  0  0  0
   -3.3258   -0.9688   -0.3972 H   0  0  0  0  0  0  0  0  0  0  0  0
   -1.0474    2.2580   -0.6577 H   0  0  0  0  0  0  0  0  0  0  0  0
    0.6445    2.4450   -0.2294 H   0  0  0  0  0  0  0  0  0  0  0  0
   -0.5704    2.4109    1.0454 H   0  0  0  0  0  0  0  0  0  0  0  0
  1  7  1  0
  2  7  1  0
  3  4  1  0
  3  5  1  0
  3  8  1  1
  3  9  1  0
  4  6  1  0
  4  7  2  3
  5 10  1  6
  5 11  1  0
  5 12  1  0
  6 13  1  6
  6 14  1  0
  6 15  1  0
M  END
>  <PUBCHEM_COMPOUND_CID>  (1) 
129629440

>  <PUBCHEM_CONFORMER_RMSD>  (1) 
0.4

>  <PUBCHEM_CONFORMER_DIVERSEORDER>  (1) 
2
1

>  <PUBCHEM_MMFF94_PARTIAL_CHARGES>  (1) 
6
1 -0.11
2 -0.14
3 0.14
4 -0.28
6 0.14
7 0.25

>  <PUBCHEM_EFFECTIVE_ROTOR_COUNT>  (1) 
1

>  <PUBCHEM_PHARMACOPHORE_FEATURES>  (1) 
3
1 1 hydrophobe
1 5 hydrophobe
1 6 hydrophobe

>  <PUBCHEM_HEAVY_ATOM_COUNT>  (1) 
7

>  <PUBCHEM_ATOM_DEF_STEREO_COUNT>  (1) 
0

>  <PUBCHEM_ATOM_UDEF_STEREO_COUNT>  (1) 
0

>  <PUBCHEM_BOND_DEF_STEREO_COUNT>  (1) 
0

>  <PUBCHEM_BOND_UDEF_STEREO_COUNT>  (1) 
1

>  <PUBCHEM_ISOTOPIC_ATOM_COUNT>  (1) 
0

>  <PUBCHEM_COMPONENT_COUNT>  (1) 
1

>  <PUBCHEM_CACTVS_TAUTO_COUNT>  (1) 
1

>  <PUBCHEM_CONFORMER_ID>  (1) 
07B9FD0000000002

>  <PUBCHEM_MMFF94_ENERGY>  (1) 
6.9347

>  <PUBCHEM_FEATURE_SELFOVERLAP>  (1) 
15.224

>  <PUBCHEM_SHAPE_FINGERPRINT>  (1) 
12897270 3 18410013225810699068
16714656 1 18340212985111077716
18185500 45 18342172271782128199
21040471 1 18193277626987791208
21293036 1 18264489666345030780
23552423 10 18191027794084673546
24536 1 17242480246768383194
29004967 10 18335146405333607283
5084963 1 18202007607842142992

>  <PUBCHEM_SHAPE_MULTIPOLES>  (1) 
151.87
3.16
1.87
0.78
0.29
0.12
0.05
0.11
0.7
0.33
-0.14
-0.14
0.04
-0.21

>  <PUBCHEM_SHAPE_SELFOVERLAP>  (1) 
254.907

>  <PUBCHEM_SHAPE_VOLUME>  (1) 
103

>  <PUBCHEM_COORDINATE_TYPE>  (1) 
2
5
10

$$$$
129629440
     RDKit          3D

 15 14  0  0  0  0  0  0  0  0999 V2000
   -2.5961    0.4864   -0.3485 Br  0  0  0  0  0  0  0  0  0  0  0  0
   -0.9327   -1.9888    0.1794 Cl  0  0  0  0  0  0  0  0  0  0  0  0
    1.5637   -0.1546    0.5479 C   0  0  2  0  0  0  0  0  0  0  0  0
    0.2206    0.4671    0.1988 C   0  0  0  0  0  0  0  0  0  0  0  0
    2.3660   -0.5311   -0.6901 C   0  0  2  0  0  0  0  0  0  0  0  0
    0.2900    1.9740    0.0809 C   0  0  1  0  0  0  0  0  0  0  0  0
   -0.9115   -0.2529    0.0316 C   0  0  0  0  0  0  0  0  0  0  0  0
    1.4367   -1.0401    1.1808 H   0  0  0  0  0  0  0  0  0  0  0  0
    2.1466    0.5462    1.1589 H   0  0  0  0  0  0  0  0  0  0  0  0
    2.5730    0.3459   -1.3121 H   0  0  0  0  0  0  0  0  0  0  0  0
    1.8346   -1.2657   -1.3037 H   0  0  0  0  0  0  0  0  0  0  0  0
    3.3258   -0.9688   -0.3972 H   0  0  0  0  0  0  0  0  0  0  0  0
    1.0474    2.2580   -0.6577 H   0  0  0  0  0  0  0  0  0  0  0  0
   -0.6445    2.4450   -0.2294 H   0  0  0  0  0  0  0  0  0  0  0  0
    0.5704    2.4109    1.0454 H   0  0  0  0  0  0  0  0  0  0  0  0
  1  7  1  0
  2  7  1  0
  3  4  1  0
  3  5  1  0
  3  8  1  6
  3  9  1  0
  4  6  1  0
  4  7  2  3
  5 10  1  1
  5 11  1  0
  5 12  1  0
  6 13  1  1
  6 14  1  0
  6 15  1  0
M  END
>  <PUBCHEM_COMPOUND_CID>  (2) 
129629440

>  <PUBCHEM_CONFORMER_RMSD>  (2) 
0.4

>  <PUBCHEM_CONFORMER_DIVERSEORDER>  (2) 
2
1

>  <PUBCHEM_MMFF94_PARTIAL_CHARGES>  (2) 
6
1 -0.11
2 -0.14
3 0.14
4 -0.28
6 0.14
7 0.25

>  <PUBCHEM_EFFECTIVE_ROTOR_COUNT>  (2) 
1

>  <PUBCHEM_PHARMACOPHORE_FEATURES>  (2) 
3
1 1 hydrophobe
1 5 hydrophobe
1 6 hydrophobe

>  <PUBCHEM_HEAVY_ATOM_COUNT>  (2) 
7

>  <PUBCHEM_ATOM_DEF_STEREO_COUNT>  (2) 
0

>  <PUBCHEM_ATOM_UDEF_STEREO_COUNT>  (2) 
0

>  <PUBCHEM_BOND_DEF_STEREO_COUNT>  (2) 
0

>  <PUBCHEM_BOND_UDEF_STEREO_COUNT>  (2) 
1

>  <PUBCHEM_ISOTOPIC_ATOM_COUNT>  (2) 
0

>  <PUBCHEM_COMPONENT_COUNT>  (2) 
1

>  <PUBCHEM_CACTVS_TAUTO_COUNT>  (2) 
1

>  <PUBCHEM_CONFORMER_ID>  (2) 
07B9FD0000000002

>  <PUBCHEM_MMFF94_ENERGY>  (2) 
6.9347

>  <PUBCHEM_FEATURE_SELFOVERLAP>  (2) 
15.224

>  <PUBCHEM_SHAPE_FINGERPRINT>  (2) 
12897270 3 18410013225810699068
16714656 1 18340212985111077716
18185500 45 18342172271782128199
21040471 1 18193277626987791208
21293036 1 18264489666345030780
23552423 10 18191027794084673546
24536 1 17242480246768383194
29004967 10 18335146405333607283
5084963 1 18202007607842142992

>  <PUBCHEM_SHAPE_MULTIPOLES>  (2) 
151.87
3.16
1.87
0.78
0.29
0.12
0.05
0.11
0.7
0.33
-0.14
-0.14
0.04
-0.21

>  <PUBCHEM_SHAPE_SELFOVERLAP>  (2) 
254.907

>  <PUBCHEM_SHAPE_VOLUME>  (2) 
103

>  <PUBCHEM_COORDINATE_TYPE>  (2) 
2
5
10

$$$$
129629440
     RDKit          3D

 15 14  0  0  0  0  0  0  0  0999 V2000
    2.5961   -0.4864   -0.3485 Br  0  0  0  0  0  0  0  0  0  0  0  0
    0.9327    1.9888    0.1794 Cl  0  0  0  0  0  0  0  0  0  0  0  0
   -1.5637    0.1546    0.5479 C   0  0  2  0  0  0  0  0  0  0  0  0
   -0.2206   -0.4671    0.1988 C   0  0  0  0  0  0  0  0  0  0  0  0
   -2.3660    0.5311   -0.6901 C   0  0  2  0  0  0  0  0  0  0  0  0
   -0.2900   -1.9740    0.0809 C   0  0  1  0  0  0  0  0  0  0  0  0
    0.9115    0.2529    0.0316 C   0  0  0  0  0  0  0  0  0  0  0  0
   -1.4367    1.0401    1.1808 H   0  0  0  0  0  0  0  0  0  0  0  0
   -2.1466   -0.5462    1.1589 H   0  0  0  0  0  0  0  0  0  0  0  0
   -2.5730   -0.3459   -1.3121 H   0  0  0  0  0  0  0  0  0  0  0  0
   -1.8346    1.2657   -1.3037 H   0  0  0  0  0  0  0  0  0  0  0  0
   -3.3258    0.9688   -0.3972 H   0  0  0  0  0  0  0  0  0  0  0  0
   -1.0474   -2.2580   -0.6577 H   0  0  0  0  0  0  0  0  0  0  0  0
    0.6445   -2.4450   -0.2294 H   0  0  0  0  0  0  0  0  0  0  0  0
   -0.5704   -2.4109    1.0454 H   0  0  0  0  0  0  0  0  0  0  0  0
  1  7  1  0
  2  7  1  0
  3  4  1  0
  3  5  1  0
  3  8  1  6
  3  9  1  0
  4  6  1  0
  4  7  2  3
  5 10  1  1
  5 11  1  0
  5 12  1  0
  6 13  1  1
  6 14  1  0
  6 15  1  0
M  END
>  <PUBCHEM_COMPOUND_CID>  (3) 
129629440

>  <PUBCHEM_CONFORMER_RMSD>  (3) 
0.4

>  <PUBCHEM_CONFORMER_DIVERSEORDER>  (3) 
2
1

>  <PUBCHEM_MMFF94_PARTIAL_CHARGES>  (3) 
6
1 -0.11
2 -0.14
3 0.14
4 -0.28
6 0.14
7 0.25

>  <PUBCHEM_EFFECTIVE_ROTOR_COUNT>  (3) 
1

>  <PUBCHEM_PHARMACOPHORE_FEATURES>  (3) 
3
1 1 hydrophobe
1 5 hydrophobe
1 6 hydrophobe

>  <PUBCHEM_HEAVY_ATOM_COUNT>  (3) 
7

>  <PUBCHEM_ATOM_DEF_STEREO_COUNT>  (3) 
0

>  <PUBCHEM_ATOM_UDEF_STEREO_COUNT>  (3) 
0

>  <PUBCHEM_BOND_DEF_STEREO_COUNT>  (3) 
0

>  <PUBCHEM_BOND_UDEF_STEREO_COUNT>  (3) 
1

>  <PUBCHEM_ISOTOPIC_ATOM_COUNT>  (3) 
0

>  <PUBCHEM_COMPONENT_COUNT>  (3) 
1

>  <PUBCHEM_CACTVS_TAUTO_COUNT>  (3) 
1

>  <PUBCHEM_CONFORMER_ID>  (3) 
07B9FD0000000002

>  <PUBCHEM_MMFF94_ENERGY>  (3) 
6.9347

>  <PUBCHEM_FEATURE_SELFOVERLAP>  (3) 
15.224

>  <PUBCHEM_SHAPE_FINGERPRINT>  (3) 
12897270 3 18410013225810699068
16714656 1 18340212985111077716
18185500 45 18342172271782128199
21040471 1 18193277626987791208
21293036 1 18264489666345030780
23552423 10 18191027794084673546
24536 1 17242480246768383194
29004967 10 18335146405333607283
5084963 1 18202007607842142992

>  <PUBCHEM_SHAPE_MULTIPOLES>  (3) 
151.87
3.16
1.87
0.78
0.29
0.12
0.05
0.11
0.7
0.33
-0.14
-0.14
0.04
-0.21

>  <PUBCHEM_SHAPE_SELFOVERLAP>  (3) 
254.907

>  <PUBCHEM_SHAPE_VOLUME>  (3) 
103

>  <PUBCHEM_COORDINATE_TYPE>  (3) 
2
5
10

$$$$
129629440
     RDKit          3D

 15 14  0  0  0  0  0  0  0  0999 V2000
    2.5961    0.4864    0.3485 Br  0  0  0  0  0  0  0  0  0  0  0  0
    0.9327   -1.9888   -0.1794 Cl  0  0  0  0  0  0  0  0  0  0  0  0
   -1.5637   -0.1546   -0.5479 C   0  0  2  0  0  0  0  0  0  0  0  0
   -0.2206    0.4671   -0.1988 C   0  0  0  0  0  0  0  0  0  0  0  0
   -2.3660   -0.5311    0.6901 C   0  0  2  0  0  0  0  0  0  0  0  0
   -0.2900    1.9740   -0.0809 C   0  0  1  0  0  0  0  0  0  0  0  0
    0.9115   -0.2529   -0.0316 C   0  0  0  0  0  0  0  0  0  0  0  0
   -1.4367   -1.0401   -1.1808 H   0  0  0  0  0  0  0  0  0  0  0  0
   -2.1466    0.5462   -1.1589 H   0  0  0  0  0  0  0  0  0  0  0  0
   -2.5730    0.3459    1.3121 H   0  0  0  0  0  0  0  0  0  0  0  0
   -1.8346   -1.2657    1.3037 H   0  0  0  0  0  0  0  0  0  0  0  0
   -3.3258   -0.9688    0.3972 H   0  0  0  0  0  0  0  0  0  0  0  0
   -1.0474    2.2580    0.6577 H   0  0  0  0  0  0  0  0  0  0  0  0
    0.6445    2.4450    0.2294 H   0  0  0  0  0  0  0  0  0  0  0  0
   -0.5704    2.4109   -1.0454 H   0  0  0  0  0  0  0  0  0  0  0  0
  1  7  1  0
  2  7  1  0
  3  4  1  0
  3  5  1  0
  3  8  1  1
  3  9  1  0
  4  6  1  0
  4  7  2  3
  5 10  1  6
  5 11  1  0
  5 12  1  0
  6 13  1  6
  6 14  1  0
  6 15  1  0
M  END
>  <PUBCHEM_COMPOUND_CID>  (4) 
129629440

>  <PUBCHEM_CONFORMER_RMSD>  (4) 
0.4

>  <PUBCHEM_CONFORMER_DIVERSEORDER>  (4) 
2
1

>  <PUBCHEM_MMFF94_PARTIAL_CHARGES>  (4) 
6
1 -0.11
2 -0.14
3 0.14
4 -0.28
6 0.14
7 0.25

>  <PUBCHEM_EFFECTIVE_ROTOR_COUNT>  (4) 
1

>  <PUBCHEM_PHARMACOPHORE_FEATURES>  (4) 
3
1 1 hydrophobe
1 5 hydrophobe
1 6 hydrophobe

>  <PUBCHEM_HEAVY_ATOM_COUNT>  (4) 
7

>  <PUBCHEM_ATOM_DEF_STEREO_COUNT>  (4) 
0

>  <PUBCHEM_ATOM_UDEF_STEREO_COUNT>  (4) 
0

>  <PUBCHEM_BOND_DEF_STEREO_COUNT>  (4) 
0

>  <PUBCHEM_BOND_UDEF_STEREO_COUNT>  (4) 
1

>  <PUBCHEM_ISOTOPIC_ATOM_COUNT>  (4) 
0

>  <PUBCHEM_COMPONENT_COUNT>  (4) 
1

>  <PUBCHEM_CACTVS_TAUTO_COUNT>  (4) 
1

>  <PUBCHEM_CONFORMER_ID>  (4) 
07B9FD0000000002

>  <PUBCHEM_MMFF94_ENERGY>  (4) 
6.9347

>  <PUBCHEM_FEATURE_SELFOVERLAP>  (4) 
15.224

>  <PUBCHEM_SHAPE_FINGERPRINT>  (4) 
12897270 3 18410013225810699068
16714656 1 18340212985111077716
18185500 45 18342172271782128199
21040471 1 18193277626987791208
21293036 1 18264489666345030780
23552423 10 18191027794084673546
24536 1 17242480246768383194
29004967 10 18335146405333607283
5084963 1 18202007607842142992

>  <PUBCHEM_SHAPE_MULTIPOLES>  (4) 
151.87
3.16
1.87
0.78
0.29
0.12
0.05
0.11
0.7
0.33
-0.14
-0.14
0.04
-0.21

>  <PUBCHEM_SHAPE_SELFOVERLAP>  (4) 
254.907

>  <PUBCHEM_SHAPE_VOLUME>  (4) 
103

>  <PUBCHEM_COORDINATE_TYPE>  (4) 
2
5
10

$$$$
