329798
     RDKit          3D

 23 24  0  0  0  0  0  0  0  0999 V2000
    0.5731    1.7824   -1.1451 O   0  0  0  0  0  0  0  0  0  0  0  0
   -0.5742   -1.7832   -1.1443 O   0  0  0  0  0  0  0  0  0  0  0  0
    0.0001   -0.0003    0.4072 C   0  0  1  0  0  0  0  0  0  0  0  0
    0.9844   -0.8128    1.2517 C   0  0  2  0  0  0  0  0  0  0  0  0
   -0.9836    0.8118    1.2527 C   0  0  2  0  0  0  0  0  0  0  0  0
    2.2388   -0.9227    0.3904 C   0  0  2  0  0  0  0  0  0  0  0  0
   -2.2380    0.9233    0.3916 C   0  0  2  0  0  0  0  0  0  0  0  0
    0.9329    0.8567   -0.4283 C   0  0  0  0  0  0  0  0  0  0  0  0
   -0.9334   -0.8567   -0.4282 C   0  0  0  0  0  0  0  0  0  0  0  0
    2.3729    0.4404   -0.2735 C   0  0  2  0  0  0  0  0  0  0  0  0
   -2.3729   -0.4388   -0.2742 C   0  0  2  0  0  0  0  0  0  0  0  0
    0.6021   -1.8034    1.5197 H   0  0  0  0  0  0  0  0  0  0  0  0
    1.2300   -0.2825    2.1806 H   0  0  0  0  0  0  0  0  0  0  0  0
   -0.6009    1.8018    1.5219 H   0  0  0  0  0  0  0  0  0  0  0  0
   -1.2296    0.2805    2.1811 H   0  0  0  0  0  0  0  0  0  0  0  0
    2.1067   -1.7012   -0.3707 H   0  0  0  0  0  0  0  0  0  0  0  0
    3.1235   -1.1799    0.9804 H   0  0  0  0  0  0  0  0  0  0  0  0
   -2.1057    1.7027   -0.3683 H   0  0  0  0  0  0  0  0  0  0  0  0
   -3.1225    1.1802    0.9820 H   0  0  0  0  0  0  0  0  0  0  0  0
    2.8738    0.3735   -1.2415 H   0  0  0  0  0  0  0  0  0  0  0  0
    2.8807    1.1556    0.3796 H   0  0  0  0  0  0  0  0  0  0  0  0
   -2.8729   -0.3702   -1.2425 H   0  0  0  0  0  0  0  0  0  0  0  0
   -2.8822   -1.1543    0.3776 H   0  0  0  0  0  0  0  0  0  0  0  0
  1  8  2  0
  2  9  2  0
  3  4  1  0
  3  5  1  0
  3  8  1  6
  3  9  1  0
  4  6  1  0
  4 12  1  1
  4 13  1  0
  5  7  1  0
  5 14  1  1
  5 15  1  0
  6 10  1  0
  6 16  1  6
  6 17  1  0
  7 11  1  0
  7 18  1  6
  7 19  1  0
  8 10  1  0
  9 11  1  0
 10 20  1  6
 10 21  1  0
 11 22  1  6
 11 23  1  0
M  END
>  <PUBCHEM_COMPOUND_CID>  (1) 
329798

>  <PUBCHEM_CONFORMER_RMSD>  (1) 
0.4

>  <PUBCHEM_CONFORMER_DIVERSEORDER>  (1) 
1
2

>  <PUBCHEM_MMFF94_PARTIAL_CHARGES>  (1) 
7
1 -0.57
10 0.06
11 0.06
2 -0.57
3 0.12
8 0.45
9 0.45

>  <PUBCHEM_EFFECTIVE_ROTOR_COUNT>  (1) 
1.2

>  <PUBCHEM_PHARMACOPHORE_FEATURES>  (1) 
4
1 1 acceptor
1 2 acceptor
5 3 4 6 8 10 rings
5 3 5 7 9 11 rings

>  <PUBCHEM_HEAVY_ATOM_COUNT>  (1) 
11

>  <PUBCHEM_ATOM_DEF_STEREO_COUNT>  (1) 
0

>  <PUBCHEM_ATOM_UDEF_STEREO_COUNT>  (1) 
0

>  <PUBCHEM_BOND_DEF_STEREO_COUNT>  (1) 
0

>  <PUBCHEM_BOND_UDEF_STEREO_COUNT>  (1) 
0

>  <PUBCHEM_ISOTOPIC_ATOM_COUNT>  (1) 
0

>  <PUBCHEM_COMPONENT_COUNT>  (1) 
1

>  <PUBCHEM_CACTVS_TAUTO_COUNT>  (1) 
3

>  <PUBCHEM_CONFORMER_ID>  (1) 
0005084600000001

>  <PUBCHEM_MMFF94_ENERGY>  (1) 
15.4233

>  <PUBCHEM_FEATURE_SELFOVERLAP>  (1) 
20.308

>  <PUBCHEM_SHAPE_FINGERPRINT>  (1) 
10857977 72 13118292494187529185
12423570 1 12213622517102869001
13024252 1 16154556346315287546
137420 1 10830048345186484824
14128692 85 18268986660265389447
14993402 34 18410856533869986103
16945 1 18410855494487900282
18185500 45 18338229487387866686
21040471 1 17917429783189474731
23211744 25 16971392721446009253
23552423 10 18192990641341270967
276578 36 16985499052293716841
29004967 10 17530685385671262328
369184 2 16773506698802889978
5084963 1 18408045121519380201
528886 8 18040427815377239344
63268167 104 18259984889960190772
68250623 7 18045241554719888475

>  <PUBCHEM_SHAPE_MULTIPOLES>  (1) 
214.64
3.04
1.5
1.17
0
0
-0.12
0
-0.1
0
0.43
0
0
-0.61

>  <PUBCHEM_SHAPE_SELFOVERLAP>  (1) 
455.085

>  <PUBCHEM_SHAPE_VOLUME>  (1) 
122.5

>  <PUBCHEM_COORDINATE_TYPE>  (1) 
2
5
10

$$$$
329798
     RDKit          3D

 23 24  0  0  0  0  0  0  0  0999 V2000
   -0.5731    1.7824   -1.1451 O   0  0  0  0  0  0  0  0  0  0  0  0
    0.5742   -1.7832   -1.1443 O   0  0  0  0  0  0  0  0  0  0  0  0
   -0.0001   -0.0003    0.4072 C   0  0  2  0  0  0  0  0  0  0  0  0
   -0.9844   -0.8128    1.2517 C   0  0  1  0  0  0  0  0  0  0  0  0
    0.9836    0.8118    1.2527 C   0  0  1  0  0  0  0  0  0  0  0  0
   -2.2388   -0.9227    0.3904 C   0  0  1  0  0  0  0  0  0  0  0  0
    2.2380    0.9233    0.3916 C   0  0  1  0  0  0  0  0  0  0  0  0
   -0.9329    0.8567   -0.4283 C   0  0  0  0  0  0  0  0  0  0  0  0
    0.9334   -0.8567   -0.4282 C   0  0  0  0  0  0  0  0  0  0  0  0
   -2.3729    0.4404   -0.2735 C   0  0  1  0  0  0  0  0  0  0  0  0
    2.3729   -0.4388   -0.2742 C   0  0  1  0  0  0  0  0  0  0  0  0
   -0.6021   -1.8034    1.5197 H   0  0  0  0  0  0  0  0  0  0  0  0
   -1.2300   -0.2825    2.1806 H   0  0  0  0  0  0  0  0  0  0  0  0
    0.6009    1.8018    1.5219 H   0  0  0  0  0  0  0  0  0  0  0  0
    1.2296    0.2805    2.1811 H   0  0  0  0  0  0  0  0  0  0  0  0
   -2.1067   -1.7012   -0.3707 H   0  0  0  0  0  0  0  0  0  0  0  0
   -3.1235   -1.1799    0.9804 H   0  0  0  0  0  0  0  0  0  0  0  0
    2.1057    1.7027   -0.3683 H   0  0  0  0  0  0  0  0  0  0  0  0
    3.1225    1.1802    0.9820 H   0  0  0  0  0  0  0  0  0  0  0  0
   -2.8738    0.3735   -1.2415 H   0  0  0  0  0  0  0  0  0  0  0  0
   -2.8807    1.1556    0.3796 H   0  0  0  0  0  0  0  0  0  0  0  0
    2.8729   -0.3702   -1.2425 H   0  0  0  0  0  0  0  0  0  0  0  0
    2.8822   -1.1543    0.3776 H   0  0  0  0  0  0  0  0  0  0  0  0
  1  8  2  0
  2  9  2  0
  3  4  1  0
  3  5  1  0
  3  8  1  1
  3  9  1  0
  4  6  1  0
  4 12  1  6
  4 13  1  0
  5  7  1  0
  5 14  1  6
  5 15  1  0
  6 10  1  0
  6 16  1  1
  6 17  1  0
  7 11  1  0
  7 18  1  1
  7 19  1  0
  8 10  1  0
  9 11  1  0
 10 20  1  1
 10 21  1  0
 11 22  1  1
 11 23  1  0
M  END
>  <PUBCHEM_COMPOUND_CID>  (2) 
329798

>  <PUBCHEM_CONFORMER_RMSD>  (2) 
0.4

>  <PUBCHEM_CONFORMER_DIVERSEORDER>  (2) 
1
2

>  <PUBCHEM_MMFF94_PARTIAL_CHARGES>  (2) 
7
1 -0.57
10 0.06
11 0.06
2 -0.57
3 0.12
8 0.45
9 0.45

>  <PUBCHEM_EFFECTIVE_ROTOR_COUNT>  (2) 
1.2

>  <PUBCHEM_PHARMACOPHORE_FEATURES>  (2) 
4
1 1 acceptor
1 2 acceptor
5 3 4 6 8 10 rings
5 3 5 7 9 11 rings

>  <PUBCHEM_HEAVY_ATOM_COUNT>  (2) 
11

>  <PUBCHEM_ATOM_DEF_STEREO_COUNT>  (2) 
0

>  <PUBCHEM_ATOM_UDEF_STEREO_COUNT>  (2) 
0

>  <PUBCHEM_BOND_DEF_STEREO_COUNT>  (2) 
0

>  <PUBCHEM_BOND_UDEF_STEREO_COUNT>  (2) 
0

>  <PUBCHEM_ISOTOPIC_ATOM_COUNT>  (2) 
0

>  <PUBCHEM_COMPONENT_COUNT>  (2) 
1

>  <PUBCHEM_CACTVS_TAUTO_COUNT>  (2) 
3

>  <PUBCHEM_CONFORMER_ID>  (2) 
0005084600000001

>  <PUBCHEM_MMFF94_ENERGY>  (2) 
15.4233

>  <PUBCHEM_FEATURE_SELFOVERLAP>  (2) 
20.308

>  <PUBCHEM_SHAPE_FINGERPRINT>  (2) 
10857977 72 13118292494187529185
12423570 1 12213622517102869001
13024252 1 16154556346315287546
137420 1 10830048345186484824
14128692 85 18268986660265389447
14993402 34 18410856533869986103
16945 1 18410855494487900282
18185500 45 18338229487387866686
21040471 1 17917429783189474731
23211744 25 16971392721446009253
23552423 10 18192990641341270967
276578 36 16985499052293716841
29004967 10 17530685385671262328
369184 2 16773506698802889978
5084963 1 18408045121519380201
528886 8 18040427815377239344
63268167 104 18259984889960190772
68250623 7 18045241554719888475

>  <PUBCHEM_SHAPE_MULTIPOLES>  (2) 
214.64
3.04
1.5
1.17
0
0
-0.12
0
-0.1
0
0.43
0
0
-0.61

>  <PUBCHEM_SHAPE_SELFOVERLAP>  (2) 
455.085

>  <PUBCHEM_SHAPE_VOLUME>  (2) 
122.5

>  <PUBCHEM_COORDINATE_TYPE>  (2) 
2
5
10

$$$$
329798
     RDKit          3D

 23 24  0  0  0  0  0  0  0  0999 V2000
    0.5731   -1.7824   -1.1451 O   0  0  0  0  0  0  0  0  0  0  0  0
   -0.5742    1.7832   -1.1443 O   0  0  0  0  0  0  0  0  0  0  0  0
    0.0001    0.0003    0.4072 C   0  0  2  0  0  0  0  0  0  0  0  0
    0.9844    0.8128    1.2517 C   0  0  1  0  0  0  0  0  0  0  0  0
   -0.9836   -0.8118    1.2527 C   0  0  1  0  0  0  0  0  0  0  0  0
    2.2388    0.9227    0.3904 C   0  0  1  0  0  0  0  0  0  0  0  0
   -2.2380   -0.9233    0.3916 C   0  0  1  0  0  0  0  0  0  0  0  0
    0.9329   -0.8567   -0.4283 C   0  0  0  0  0  0  0  0  0  0  0  0
   -0.9334    0.8567   -0.4282 C   0  0  0  0  0  0  0  0  0  0  0  0
    2.3729   -0.4404   -0.2735 C   0  0  1  0  0  0  0  0  0  0  0  0
   -2.3729    0.4388   -0.2742 C   0  0  1  0  0  0  0  0  0  0  0  0
    0.6021    1.8034    1.5197 H   0  0  0  0  0  0  0  0  0  0  0  0
    1.2300    0.2825    2.1806 H   0  0  0  0  0  0  0  0  0  0  0  0
   -0.6009   -1.8018    1.5219 H   0  0  0  0  0  0  0  0  0  0  0  0
   -1.2296   -0.2805    2.1811 H   0  0  0  0  0  0  0  0  0  0  0  0
    2.1067    1.7012   -0.3707 H   0  0  0  0  0  0  0  0  0  0  0  0
    3.1235    1.1799    0.9804 H   0  0  0  0  0  0  0  0  0  0  0  0
   -2.1057   -1.7027   -0.3683 H   0  0  0  0  0  0  0  0  0  0  0  0
   -3.1225   -1.1802    0.9820 H   0  0  0  0  0  0  0  0  0  0  0  0
    2.8738   -0.3735   -1.2415 H   0  0  0  0  0  0  0  0  0  0  0  0
    2.8807   -1.1556    0.3796 H   0  0  0  0  0  0  0  0  0  0  0  0
   -2.8729    0.3702   -1.2425 H   0  0  0  0  0  0  0  0  0  0  0  0
   -2.8822    1.1543    0.3776 H   0  0  0  0  0  0  0  0  0  0  0  0
  1  8  2  0
  2  9  2  0
  3  4  1  0
  3  5  1  0
  3  8  1  1
  3  9  1  0
  4  6  1  0
  4 12  1  6
  4 13  1  0
  5  7  1  0
  5 14  1  6
  5 15  1  0
  6 10  1  0
  6 16  1  1
  6 17  1  0
  7 11  1  0
  7 18  1  1
  7 19  1  0
  8 10  1  0
  9 11  1  0
 10 20  1  1
 10 21  1  0
 11 22  1  1
 11 23  1  0
M  END
>  <PUBCHEM_COMPOUND_CID>  (3) 
329798

>  <PUBCHEM_CONFORMER_RMSD>  (3) 
0.4

>  <PUBCHEM_CONFORMER_DIVERSEORDER>  (3) 
1
2

>  <PUBCHEM_MMFF94_PARTIAL_CHARGES>  (3) 
7
1 -0.57
10 0.06
11 0.06
2 -0.57
3 0.12
8 0.45
9 0.45

>  <PUBCHEM_EFFECTIVE_ROTOR_COUNT>  (3) 
1.2

>  <PUBCHEM_PHARMACOPHORE_FEATURES>  (3) 
4
1 1 acceptor
1 2 acceptor
5 3 4 6 8 10 rings
5 3 5 7 9 11 rings

>  <PUBCHEM_HEAVY_ATOM_COUNT>  (3) 
11

>  <PUBCHEM_ATOM_DEF_STEREO_COUNT>  (3) 
0

>  <PUBCHEM_ATOM_UDEF_STEREO_COUNT>  (3) 
0

>  <PUBCHEM_BOND_DEF_STEREO_COUNT>  (3) 
0

>  <PUBCHEM_BOND_UDEF_STEREO_COUNT>  (3) 
0

>  <PUBCHEM_ISOTOPIC_ATOM_COUNT>  (3) 
0

>  <PUBCHEM_COMPONENT_COUNT>  (3) 
1

>  <PUBCHEM_CACTVS_TAUTO_COUNT>  (3) 
3

>  <PUBCHEM_CONFORMER_ID>  (3) 
0005084600000001

>  <PUBCHEM_MMFF94_ENERGY>  (3) 
15.4233

>  <PUBCHEM_FEATURE_SELFOVERLAP>  (3) 
20.308

>  <PUBCHEM_SHAPE_FINGERPRINT>  (3) 
10857977 72 13118292494187529185
12423570 1 12213622517102869001
13024252 1 16154556346315287546
137420 1 10830048345186484824
14128692 85 18268986660265389447
14993402 34 18410856533869986103
16945 1 18410855494487900282
18185500 45 18338229487387866686
21040471 1 17917429783189474731
23211744 25 16971392721446009253
23552423 10 18192990641341270967
276578 36 16985499052293716841
29004967 10 17530685385671262328
369184 2 16773506698802889978
5084963 1 18408045121519380201
528886 8 18040427815377239344
63268167 104 18259984889960190772
68250623 7 18045241554719888475

>  <PUBCHEM_SHAPE_MULTIPOLES>  (3) 
214.64
3.04
1.5
1.17
0
0
-0.12
0
-0.1
0
0.43
0
0
-0.61

>  <PUBCHEM_SHAPE_SELFOVERLAP>  (3) 
455.085

>  <PUBCHEM_SHAPE_VOLUME>  (3) 
122.5

>  <PUBCHEM_COORDINATE_TYPE>  (3) 
2
5
10

$$$$
329798
     RDKit          3D

 23 24  0  0  0  0  0  0  0  0999 V2000
    0.5731    1.7824    1.1451 O   0  0  0  0  0  0  0  0  0  0  0  0
   -0.5742   -1.7832    1.1443 O   0  0  0  0  0  0  0  0  0  0  0  0
    0.0001   -0.0003   -0.4072 C   0  0  2  0  0  0  0  0  0  0  0  0
    0.9844   -0.8128   -1.2517 C   0  0  1  0  0  0  0  0  0  0  0  0
   -0.9836    0.8118   -1.2527 C   0  0  1  0  0  0  0  0  0  0  0  0
    2.2388   -0.9227   -0.3904 C   0  0  1  0  0  0  0  0  0  0  0  0
   -2.2380    0.9233   -0.3916 C   0  0  1  0  0  0  0  0  0  0  0  0
    0.9329    0.8567    0.4283 C   0  0  0  0  0  0  0  0  0  0  0  0
   -0.9334   -0.8567    0.4282 C   0  0  0  0  0  0  0  0  0  0  0  0
    2.3729    0.4404    0.2735 C   0  0  1  0  0  0  0  0  0  0  0  0
   -2.3729   -0.4388    0.2742 C   0  0  1  0  0  0  0  0  0  0  0  0
    0.6021   -1.8034   -1.5197 H   0  0  0  0  0  0  0  0  0  0  0  0
    1.2300   -0.2825   -2.1806 H   0  0  0  0  0  0  0  0  0  0  0  0
   -0.6009    1.8018   -1.5219 H   0  0  0  0  0  0  0  0  0  0  0  0
   -1.2296    0.2805   -2.1811 H   0  0  0  0  0  0  0  0  0  0  0  0
    2.1067   -1.7012    0.3707 H   0  0  0  0  0  0  0  0  0  0  0  0
    3.1235   -1.1799   -0.9804 H   0  0  0  0  0  0  0  0  0  0  0  0
   -2.1057    1.7027    0.3683 H   0  0  0  0  0  0  0  0  0  0  0  0
   -3.1225    1.1802   -0.9820 H   0  0  0  0  0  0  0  0  0  0  0  0
    2.8738    0.3735    1.2415 H   0  0  0  0  0  0  0  0  0  0  0  0
    2.8807    1.1556   -0.3796 H   0  0  0  0  0  0  0  0  0  0  0  0
   -2.8729   -0.3702    1.2425 H   0  0  0  0  0  0  0  0  0  0  0  0
   -2.8822   -1.1543   -0.3776 H   0  0  0  0  0  0  0  0  0  0  0  0
  1  8  2  0
  2  9  2  0
  3  4  1  0
  3  5  1  0
  3  8  1  6
  3  9  1  0
  4  6  1  0
  4 12  1  1
  4 13  1  0
  5  7  1  0
  5 14  1  1
  5 15  1  0
  6 10  1  0
  6 16  1  6
  6 17  1  0
  7 11  1  0
  7 18  1  6
  7 19  1  0
  8 10  1  0
  9 11  1  0
 10 20  1  6
 10 21  1  0
 11 22  1  6
 11 23  1  0
M  END
>  <PUBCHEM_COMPOUND_CID>  (4) 
329798

>  <PUBCHEM_CONFORMER_RMSD>  (4) 
0.4

>  <PUBCHEM_CONFORMER_DIVERSEORDER>  (4) 
1
2

>  <PUBCHEM_MMFF94_PARTIAL_CHARGES>  (4) 
7
1 -0.57
10 0.06
11 0.06
2 -0.57
3 0.12
8 0.45
9 0.45

>  <PUBCHEM_EFFECTIVE_ROTOR_COUNT>  (4) 
1.2

>  <PUBCHEM_PHARMACOPHORE_FEATURES>  (4) 
4
1 1 acceptor
1 2 acceptor
5 3 4 6 8 10 rings
5 3 5 7 9 11 rings

>  <PUBCHEM_HEAVY_ATOM_COUNT>  (4) 
11

>  <PUBCHEM_ATOM_DEF_STEREO_COUNT>  (4) 
0

>  <PUBCHEM_ATOM_UDEF_STEREO_COUNT>  (4) 
0

>  <PUBCHEM_BOND_DEF_STEREO_COUNT>  (4) 
0

>  <PUBCHEM_BOND_UDEF_STEREO_COUNT>  (4) 
0

>  <PUBCHEM_ISOTOPIC_ATOM_COUNT>  (4) 
0

>  <PUBCHEM_COMPONENT_COUNT>  (4) 
1

>  <PUBCHEM_CACTVS_TAUTO_COUNT>  (4) 
3

>  <PUBCHEM_CONFORMER_ID>  (4) 
0005084600000001

>  <PUBCHEM_MMFF94_ENERGY>  (4) 
15.4233

>  <PUBCHEM_FEATURE_SELFOVERLAP>  (4) 
20.308

>  <PUBCHEM_SHAPE_FINGERPRINT>  (4) 
10857977 72 13118292494187529185
12423570 1 12213622517102869001
13024252 1 16154556346315287546
137420 1 10830048345186484824
14128692 85 18268986660265389447
14993402 34 18410856533869986103
16945 1 18410855494487900282
18185500 45 18338229487387866686
21040471 1 17917429783189474731
23211744 25 16971392721446009253
23552423 10 18192990641341270967
276578 36 16985499052293716841
29004967 10 17530685385671262328
369184 2 16773506698802889978
5084963 1 18408045121519380201
528886 8 18040427815377239344
63268167 104 18259984889960190772
68250623 7 18045241554719888475

>  <PUBCHEM_SHAPE_MULTIPOLES>  (4) 
214.64
3.04
1.5
1.17
0
0
-0.12
0
-0.1
0
0.43
0
0
-0.61

>  <PUBCHEM_SHAPE_SELFOVERLAP>  (4) 
455.085

>  <PUBCHEM_SHAPE_VOLUME>  (4) 
122.5

>  <PUBCHEM_COORDINATE_TYPE>  (4) 
2
5
10

$$$$
