95234
     RDKit          3D

 32 33  0  0  0  0  0  0  0  0999 V2000
   -0.1430    2.2161    2.3390 O   0  0  0  0  0  0  0  0  0  0  0  0
    1.5164    3.3706   -0.8041 O   0  0  0  0  0  0  0  0  0  0  0  0
   -0.0459    0.1569    3.2966 O   0  0  0  0  0  0  0  0  0  0  0  0
   -0.4253    2.3478   -1.3959 O   0  0  0  0  0  0  0  0  0  0  0  0
   -1.8472   -1.1977   -3.1101 O   0  0  0  0  0  0  0  0  0  0  0  0
    1.4049   -3.3711    1.0960 O   0  0  0  0  0  0  0  0  0  0  0  0
    0.1956   -0.9220   -2.3548 O   0  0  0  0  0  0  0  0  0  0  0  0
   -0.5133   -2.3160    0.9320 O   0  0  0  0  0  0  0  0  0  0  0  0
   -1.0468   -0.8586   -2.2082 N   0  0  0  0  0  0  0  0  0  0  0  0
    0.7310   -2.3592    0.7943 N   0  0  0  0  0  0  0  0  0  0  0  0
   -0.7319    0.0100    0.0738 C   0  0  0  0  0  0  0  0  0  0  0  0
    0.7130   -0.0574   -0.0789 C   0  0  0  0  0  0  0  0  0  0  0  0
   -1.2801    0.4700    1.2711 C   0  0  0  0  0  0  0  0  0  0  0  0
    1.4073    1.0422   -0.5831 C   0  0  0  0  0  0  0  0  0  0  0  0
   -1.5685   -0.3831   -0.9708 C   0  0  0  0  0  0  0  0  0  0  0  0
    1.4043   -1.2156    0.2764 C   0  0  0  0  0  0  0  0  0  0  0  0
   -2.6650    0.5371    1.4237 C   0  0  0  0  0  0  0  0  0  0  0  0
    2.7930    0.9838   -0.7319 C   0  0  0  0  0  0  0  0  0  0  0  0
   -2.9533   -0.3161   -0.8181 C   0  0  0  0  0  0  0  0  0  0  0  0
    2.7899   -1.2742    0.1275 C   0  0  0  0  0  0  0  0  0  0  0  0
   -3.5016    0.1441    0.3791 C   0  0  0  0  0  0  0  0  0  0  0  0
    3.4844   -0.1744   -0.3766 C   0  0  0  0  0  0  0  0  0  0  0  0
   -0.4463    0.8919    2.3917 C   0  0  0  0  0  0  0  0  0  0  0  0
    0.7285    2.2749   -0.9684 C   0  0  0  0  0  0  0  0  0  0  0  0
   -3.1051    0.8935    2.3516 H   0  0  0  0  0  0  0  0  0  0  0  0
    3.3639    1.8160   -1.1353 H   0  0  0  0  0  0  0  0  0  0  0  0
   -3.6412   -0.6123   -1.6059 H   0  0  0  0  0  0  0  0  0  0  0  0
    3.3673   -2.1567    0.3908 H   0  0  0  0  0  0  0  0  0  0  0  0
   -4.5799    0.1965    0.4984 H   0  0  0  0  0  0  0  0  0  0  0  0
    4.5630   -0.2211   -0.4958 H   0  0  0  0  0  0  0  0  0  0  0  0
    0.4202    2.4921    3.0932 H   0  0  0  0  0  0  0  0  0  0  0  0
    1.0536    4.1955   -1.0642 H   0  0  0  0  0  0  0  0  0  0  0  0
  1 23  1  0
  1 31  1  0
  2 24  1  0
  2 32  1  0
  3 23  2  0
  4 24  2  0
  5  9  1  0
  6 10  1  0
  7  9  2  0
  8 10  2  0
  9 15  1  0
 10 16  1  0
 11 12  1  0
 11 13  2  0
 11 15  1  0
 12 14  2  0
 12 16  1  0
 13 17  1  0
 13 23  1  0
 14 18  1  0
 14 24  1  0
 15 19  2  0
 16 20  2  0
 17 21  2  0
 17 25  1  0
 18 22  2  0
 18 26  1  0
 19 21  1  0
 19 27  1  0
 20 22  1  0
 20 28  1  0
 21 29  1  0
 22 30  1  0
M  CHG  4   5  -1   6  -1   9   1  10   1
M  END
>  <PUBCHEM_COMPOUND_CID>  (1) 
95234

>  <PUBCHEM_CONFORMER_RMSD>  (1) 
0.8

>  <PUBCHEM_CONFORMER_DIVERSEORDER>  (1) 
1
2

>  <PUBCHEM_MMFF94_PARTIAL_CHARGES>  (1) 
30
1 -0.65
10 0.91
13 0.09
14 0.09
15 0.13
16 0.13
17 -0.15
18 -0.15
19 -0.15
2 -0.65
20 -0.15
21 -0.15
22 -0.15
23 0.63
24 0.63
25 0.15
26 0.15
27 0.15
28 0.15
29 0.15
3 -0.57
30 0.15
31 0.5
32 0.5
4 -0.57
5 -0.52
6 -0.52
7 -0.52
8 -0.52
9 0.91

>  <PUBCHEM_EFFECTIVE_ROTOR_COUNT>  (1) 
5

>  <PUBCHEM_PHARMACOPHORE_FEATURES>  (1) 
14
1 1 acceptor
1 2 acceptor
1 3 acceptor
1 4 acceptor
1 5 acceptor
1 5 anion
1 6 acceptor
1 6 anion
1 7 acceptor
1 8 acceptor
3 1 3 23 anion
3 2 4 24 anion
6 11 13 15 17 19 21 rings
6 12 14 16 18 20 22 rings

>  <PUBCHEM_HEAVY_ATOM_COUNT>  (1) 
24

>  <PUBCHEM_ATOM_DEF_STEREO_COUNT>  (1) 
0

>  <PUBCHEM_ATOM_UDEF_STEREO_COUNT>  (1) 
0

>  <PUBCHEM_BOND_DEF_STEREO_COUNT>  (1) 
0

>  <PUBCHEM_BOND_UDEF_STEREO_COUNT>  (1) 
0

>  <PUBCHEM_ISOTOPIC_ATOM_COUNT>  (1) 
0

>  <PUBCHEM_COMPONENT_COUNT>  (1) 
1

>  <PUBCHEM_CACTVS_TAUTO_COUNT>  (1) 
1

>  <PUBCHEM_CONFORMER_ID>  (1) 
0001740200000001

>  <PUBCHEM_MMFF94_ENERGY>  (1) 
110.1807

>  <PUBCHEM_FEATURE_SELFOVERLAP>  (1) 
71.333

>  <PUBCHEM_SHAPE_FINGERPRINT>  (1) 
10863032 1 11638036972045056803
11582403 64 16377150525327556557
12035758 1 10959573971750061853
12236239 1 11097858514046035175
13965767 371 8166703511031981028
14817 1 9023469583016998993
16945 1 18334861627421726109
20511035 2 14469370960595730769
20600515 1 13992192951664361609
20905425 154 8458590588190109554
229495 10 11762159654182985114
23419403 2 14821671262573045831
23728640 28 10292091180318840461
4340502 62 18049451640814419131
5845 1 17026599917404221162
77492 1 11097858514040760423

>  <PUBCHEM_SHAPE_MULTIPOLES>  (1) 
436.99
4.01
2.74
2.6
0.02
0.22
-0.16
-0.21
0.37
-1.52
-0.18
1.31
-0.08
-1.13

>  <PUBCHEM_SHAPE_SELFOVERLAP>  (1) 
974

>  <PUBCHEM_SHAPE_VOLUME>  (1) 
230.7

>  <PUBCHEM_COORDINATE_TYPE>  (1) 
2
5
10

$$$$
95234
     RDKit          3D

 32 33  0  0  0  0  0  0  0  0999 V2000
    0.1430    2.2161    2.3390 O   0  0  0  0  0  0  0  0  0  0  0  0
   -1.5164    3.3706   -0.8041 O   0  0  0  0  0  0  0  0  0  0  0  0
    0.0459    0.1569    3.2966 O   0  0  0  0  0  0  0  0  0  0  0  0
    0.4253    2.3478   -1.3959 O   0  0  0  0  0  0  0  0  0  0  0  0
    1.8472   -1.1977   -3.1101 O   0  0  0  0  0  0  0  0  0  0  0  0
   -1.4049   -3.3711    1.0960 O   0  0  0  0  0  0  0  0  0  0  0  0
   -0.1956   -0.9220   -2.3548 O   0  0  0  0  0  0  0  0  0  0  0  0
    0.5133   -2.3160    0.9320 O   0  0  0  0  0  0  0  0  0  0  0  0
    1.0468   -0.8586   -2.2082 N   0  0  0  0  0  0  0  0  0  0  0  0
   -0.7310   -2.3592    0.7943 N   0  0  0  0  0  0  0  0  0  0  0  0
    0.7319    0.0100    0.0738 C   0  0  0  0  0  0  0  0  0  0  0  0
   -0.7130   -0.0574   -0.0789 C   0  0  0  0  0  0  0  0  0  0  0  0
    1.2801    0.4700    1.2711 C   0  0  0  0  0  0  0  0  0  0  0  0
   -1.4073    1.0422   -0.5831 C   0  0  0  0  0  0  0  0  0  0  0  0
    1.5685   -0.3831   -0.9708 C   0  0  0  0  0  0  0  0  0  0  0  0
   -1.4043   -1.2156    0.2764 C   0  0  0  0  0  0  0  0  0  0  0  0
    2.6650    0.5371    1.4237 C   0  0  0  0  0  0  0  0  0  0  0  0
   -2.7930    0.9838   -0.7319 C   0  0  0  0  0  0  0  0  0  0  0  0
    2.9533   -0.3161   -0.8181 C   0  0  0  0  0  0  0  0  0  0  0  0
   -2.7899   -1.2742    0.1275 C   0  0  0  0  0  0  0  0  0  0  0  0
    3.5016    0.1441    0.3791 C   0  0  0  0  0  0  0  0  0  0  0  0
   -3.4844   -0.1744   -0.3766 C   0  0  0  0  0  0  0  0  0  0  0  0
    0.4463    0.8919    2.3917 C   0  0  0  0  0  0  0  0  0  0  0  0
   -0.7285    2.2749   -0.9684 C   0  0  0  0  0  0  0  0  0  0  0  0
    3.1051    0.8935    2.3516 H   0  0  0  0  0  0  0  0  0  0  0  0
   -3.3639    1.8160   -1.1353 H   0  0  0  0  0  0  0  0  0  0  0  0
    3.6412   -0.6123   -1.6059 H   0  0  0  0  0  0  0  0  0  0  0  0
   -3.3673   -2.1567    0.3908 H   0  0  0  0  0  0  0  0  0  0  0  0
    4.5799    0.1965    0.4984 H   0  0  0  0  0  0  0  0  0  0  0  0
   -4.5630   -0.2211   -0.4958 H   0  0  0  0  0  0  0  0  0  0  0  0
   -0.4202    2.4921    3.0932 H   0  0  0  0  0  0  0  0  0  0  0  0
   -1.0536    4.1955   -1.0642 H   0  0  0  0  0  0  0  0  0  0  0  0
  1 23  1  0
  1 31  1  0
  2 24  1  0
  2 32  1  0
  3 23  2  0
  4 24  2  0
  5  9  1  0
  6 10  1  0
  7  9  2  0
  8 10  2  0
  9 15  1  0
 10 16  1  0
 11 12  1  0
 11 13  2  0
 11 15  1  0
 12 14  2  0
 12 16  1  0
 13 17  1  0
 13 23  1  0
 14 18  1  0
 14 24  1  0
 15 19  2  0
 16 20  2  0
 17 21  2  0
 17 25  1  0
 18 22  2  0
 18 26  1  0
 19 21  1  0
 19 27  1  0
 20 22  1  0
 20 28  1  0
 21 29  1  0
 22 30  1  0
M  CHG  4   5  -1   6  -1   9   1  10   1
M  END
>  <PUBCHEM_COMPOUND_CID>  (2) 
95234

>  <PUBCHEM_CONFORMER_RMSD>  (2) 
0.8

>  <PUBCHEM_CONFORMER_DIVERSEORDER>  (2) 
1
2

>  <PUBCHEM_MMFF94_PARTIAL_CHARGES>  (2) 
30
1 -0.65
10 0.91
13 0.09
14 0.09
15 0.13
16 0.13
17 -0.15
18 -0.15
19 -0.15
2 -0.65
20 -0.15
21 -0.15
22 -0.15
23 0.63
24 0.63
25 0.15
26 0.15
27 0.15
28 0.15
29 0.15
3 -0.57
30 0.15
31 0.5
32 0.5
4 -0.57
5 -0.52
6 -0.52
7 -0.52
8 -0.52
9 0.91

>  <PUBCHEM_EFFECTIVE_ROTOR_COUNT>  (2) 
5

>  <PUBCHEM_PHARMACOPHORE_FEATURES>  (2) 
14
1 1 acceptor
1 2 acceptor
1 3 acceptor
1 4 acceptor
1 5 acceptor
1 5 anion
1 6 acceptor
1 6 anion
1 7 acceptor
1 8 acceptor
3 1 3 23 anion
3 2 4 24 anion
6 11 13 15 17 19 21 rings
6 12 14 16 18 20 22 rings

>  <PUBCHEM_HEAVY_ATOM_COUNT>  (2) 
24

>  <PUBCHEM_ATOM_DEF_STEREO_COUNT>  (2) 
0

>  <PUBCHEM_ATOM_UDEF_STEREO_COUNT>  (2) 
0

>  <PUBCHEM_BOND_DEF_STEREO_COUNT>  (2) 
0

>  <PUBCHEM_BOND_UDEF_STEREO_COUNT>  (2) 
0

>  <PUBCHEM_ISOTOPIC_ATOM_COUNT>  (2) 
0

>  <PUBCHEM_COMPONENT_COUNT>  (2) 
1

>  <PUBCHEM_CACTVS_TAUTO_COUNT>  (2) 
1

>  <PUBCHEM_CONFORMER_ID>  (2) 
0001740200000001

>  <PUBCHEM_MMFF94_ENERGY>  (2) 
110.1807

>  <PUBCHEM_FEATURE_SELFOVERLAP>  (2) 
71.333

>  <PUBCHEM_SHAPE_FINGERPRINT>  (2) 
10863032 1 11638036972045056803
11582403 64 16377150525327556557
12035758 1 10959573971750061853
12236239 1 11097858514046035175
13965767 371 8166703511031981028
14817 1 9023469583016998993
16945 1 18334861627421726109
20511035 2 14469370960595730769
20600515 1 13992192951664361609
20905425 154 8458590588190109554
229495 10 11762159654182985114
23419403 2 14821671262573045831
23728640 28 10292091180318840461
4340502 62 18049451640814419131
5845 1 17026599917404221162
77492 1 11097858514040760423

>  <PUBCHEM_SHAPE_MULTIPOLES>  (2) 
436.99
4.01
2.74
2.6
0.02
0.22
-0.16
-0.21
0.37
-1.52
-0.18
1.31
-0.08
-1.13

>  <PUBCHEM_SHAPE_SELFOVERLAP>  (2) 
974

>  <PUBCHEM_SHAPE_VOLUME>  (2) 
230.7

>  <PUBCHEM_COORDINATE_TYPE>  (2) 
2
5
10

$$$$
95234
     RDKit          3D

 32 33  0  0  0  0  0  0  0  0999 V2000
   -0.1430   -2.2161    2.3390 O   0  0  0  0  0  0  0  0  0  0  0  0
    1.5164   -3.3706   -0.8041 O   0  0  0  0  0  0  0  0  0  0  0  0
   -0.0459   -0.1569    3.2966 O   0  0  0  0  0  0  0  0  0  0  0  0
   -0.4253   -2.3478   -1.3959 O   0  0  0  0  0  0  0  0  0  0  0  0
   -1.8472    1.1977   -3.1101 O   0  0  0  0  0  0  0  0  0  0  0  0
    1.4049    3.3711    1.0960 O   0  0  0  0  0  0  0  0  0  0  0  0
    0.1956    0.9220   -2.3548 O   0  0  0  0  0  0  0  0  0  0  0  0
   -0.5133    2.3160    0.9320 O   0  0  0  0  0  0  0  0  0  0  0  0
   -1.0468    0.8586   -2.2082 N   0  0  0  0  0  0  0  0  0  0  0  0
    0.7310    2.3592    0.7943 N   0  0  0  0  0  0  0  0  0  0  0  0
   -0.7319   -0.0100    0.0738 C   0  0  0  0  0  0  0  0  0  0  0  0
    0.7130    0.0574   -0.0789 C   0  0  0  0  0  0  0  0  0  0  0  0
   -1.2801   -0.4700    1.2711 C   0  0  0  0  0  0  0  0  0  0  0  0
    1.4073   -1.0422   -0.5831 C   0  0  0  0  0  0  0  0  0  0  0  0
   -1.5685    0.3831   -0.9708 C   0  0  0  0  0  0  0  0  0  0  0  0
    1.4043    1.2156    0.2764 C   0  0  0  0  0  0  0  0  0  0  0  0
   -2.6650   -0.5371    1.4237 C   0  0  0  0  0  0  0  0  0  0  0  0
    2.7930   -0.9838   -0.7319 C   0  0  0  0  0  0  0  0  0  0  0  0
   -2.9533    0.3161   -0.8181 C   0  0  0  0  0  0  0  0  0  0  0  0
    2.7899    1.2742    0.1275 C   0  0  0  0  0  0  0  0  0  0  0  0
   -3.5016   -0.1441    0.3791 C   0  0  0  0  0  0  0  0  0  0  0  0
    3.4844    0.1744   -0.3766 C   0  0  0  0  0  0  0  0  0  0  0  0
   -0.4463   -0.8919    2.3917 C   0  0  0  0  0  0  0  0  0  0  0  0
    0.7285   -2.2749   -0.9684 C   0  0  0  0  0  0  0  0  0  0  0  0
   -3.1051   -0.8935    2.3516 H   0  0  0  0  0  0  0  0  0  0  0  0
    3.3639   -1.8160   -1.1353 H   0  0  0  0  0  0  0  0  0  0  0  0
   -3.6412    0.6123   -1.6059 H   0  0  0  0  0  0  0  0  0  0  0  0
    3.3673    2.1567    0.3908 H   0  0  0  0  0  0  0  0  0  0  0  0
   -4.5799   -0.1965    0.4984 H   0  0  0  0  0  0  0  0  0  0  0  0
    4.5630    0.2211   -0.4958 H   0  0  0  0  0  0  0  0  0  0  0  0
    0.4202   -2.4921    3.0932 H   0  0  0  0  0  0  0  0  0  0  0  0
    1.0536   -4.1955   -1.0642 H   0  0  0  0  0  0  0  0  0  0  0  0
  1 23  1  0
  1 31  1  0
  2 24  1  0
  2 32  1  0
  3 23  2  0
  4 24  2  0
  5  9  1  0
  6 10  1  0
  7  9  2  0
  8 10  2  0
  9 15  1  0
 10 16  1  0
 11 12  1  0
 11 13  2  0
 11 15  1  0
 12 14  2  0
 12 16  1  0
 13 17  1  0
 13 23  1  0
 14 18  1  0
 14 24  1  0
 15 19  2  0
 16 20  2  0
 17 21  2  0
 17 25  1  0
 18 22  2  0
 18 26  1  0
 19 21  1  0
 19 27  1  0
 20 22  1  0
 20 28  1  0
 21 29  1  0
 22 30  1  0
M  CHG  4   5  -1   6  -1   9   1  10   1
M  END
>  <PUBCHEM_COMPOUND_CID>  (3) 
95234

>  <PUBCHEM_CONFORMER_RMSD>  (3) 
0.8

>  <PUBCHEM_CONFORMER_DIVERSEORDER>  (3) 
1
2

>  <PUBCHEM_MMFF94_PARTIAL_CHARGES>  (3) 
30
1 -0.65
10 0.91
13 0.09
14 0.09
15 0.13
16 0.13
17 -0.15
18 -0.15
19 -0.15
2 -0.65
20 -0.15
21 -0.15
22 -0.15
23 0.63
24 0.63
25 0.15
26 0.15
27 0.15
28 0.15
29 0.15
3 -0.57
30 0.15
31 0.5
32 0.5
4 -0.57
5 -0.52
6 -0.52
7 -0.52
8 -0.52
9 0.91

>  <PUBCHEM_EFFECTIVE_ROTOR_COUNT>  (3) 
5

>  <PUBCHEM_PHARMACOPHORE_FEATURES>  (3) 
14
1 1 acceptor
1 2 acceptor
1 3 acceptor
1 4 acceptor
1 5 acceptor
1 5 anion
1 6 acceptor
1 6 anion
1 7 acceptor
1 8 acceptor
3 1 3 23 anion
3 2 4 24 anion
6 11 13 15 17 19 21 rings
6 12 14 16 18 20 22 rings

>  <PUBCHEM_HEAVY_ATOM_COUNT>  (3) 
24

>  <PUBCHEM_ATOM_DEF_STEREO_COUNT>  (3) 
0

>  <PUBCHEM_ATOM_UDEF_STEREO_COUNT>  (3) 
0

>  <PUBCHEM_BOND_DEF_STEREO_COUNT>  (3) 
0

>  <PUBCHEM_BOND_UDEF_STEREO_COUNT>  (3) 
0

>  <PUBCHEM_ISOTOPIC_ATOM_COUNT>  (3) 
0

>  <PUBCHEM_COMPONENT_COUNT>  (3) 
1

>  <PUBCHEM_CACTVS_TAUTO_COUNT>  (3) 
1

>  <PUBCHEM_CONFORMER_ID>  (3) 
0001740200000001

>  <PUBCHEM_MMFF94_ENERGY>  (3) 
110.1807

>  <PUBCHEM_FEATURE_SELFOVERLAP>  (3) 
71.333

>  <PUBCHEM_SHAPE_FINGERPRINT>  (3) 
10863032 1 11638036972045056803
11582403 64 16377150525327556557
12035758 1 10959573971750061853
12236239 1 11097858514046035175
13965767 371 8166703511031981028
14817 1 9023469583016998993
16945 1 18334861627421726109
20511035 2 14469370960595730769
20600515 1 13992192951664361609
20905425 154 8458590588190109554
229495 10 11762159654182985114
23419403 2 14821671262573045831
23728640 28 10292091180318840461
4340502 62 18049451640814419131
5845 1 17026599917404221162
77492 1 11097858514040760423

>  <PUBCHEM_SHAPE_MULTIPOLES>  (3) 
436.99
4.01
2.74
2.6
0.02
0.22
-0.16
-0.21
0.37
-1.52
-0.18
1.31
-0.08
-1.13

>  <PUBCHEM_SHAPE_SELFOVERLAP>  (3) 
974

>  <PUBCHEM_SHAPE_VOLUME>  (3) 
230.7

>  <PUBCHEM_COORDINATE_TYPE>  (3) 
2
5
10

$$$$
95234
     RDKit          3D

 32 33  0  0  0  0  0  0  0  0999 V2000
   -0.1430    2.2161   -2.3390 O   0  0  0  0  0  0  0  0  0  0  0  0
    1.5164    3.3706    0.8041 O   0  0  0  0  0  0  0  0  0  0  0  0
   -0.0459    0.1569   -3.2966 O   0  0  0  0  0  0  0  0  0  0  0  0
   -0.4253    2.3478    1.3959 O   0  0  0  0  0  0  0  0  0  0  0  0
   -1.8472   -1.1977    3.1101 O   0  0  0  0  0  0  0  0  0  0  0  0
    1.4049   -3.3711   -1.0960 O   0  0  0  0  0  0  0  0  0  0  0  0
    0.1956   -0.9220    2.3548 O   0  0  0  0  0  0  0  0  0  0  0  0
   -0.5133   -2.3160   -0.9320 O   0  0  0  0  0  0  0  0  0  0  0  0
   -1.0468   -0.8586    2.2082 N   0  0  0  0  0  0  0  0  0  0  0  0
    0.7310   -2.3592   -0.7943 N   0  0  0  0  0  0  0  0  0  0  0  0
   -0.7319    0.0100   -0.0738 C   0  0  0  0  0  0  0  0  0  0  0  0
    0.7130   -0.0574    0.0789 C   0  0  0  0  0  0  0  0  0  0  0  0
   -1.2801    0.4700   -1.2711 C   0  0  0  0  0  0  0  0  0  0  0  0
    1.4073    1.0422    0.5831 C   0  0  0  0  0  0  0  0  0  0  0  0
   -1.5685   -0.3831    0.9708 C   0  0  0  0  0  0  0  0  0  0  0  0
    1.4043   -1.2156   -0.2764 C   0  0  0  0  0  0  0  0  0  0  0  0
   -2.6650    0.5371   -1.4237 C   0  0  0  0  0  0  0  0  0  0  0  0
    2.7930    0.9838    0.7319 C   0  0  0  0  0  0  0  0  0  0  0  0
   -2.9533   -0.3161    0.8181 C   0  0  0  0  0  0  0  0  0  0  0  0
    2.7899   -1.2742   -0.1275 C   0  0  0  0  0  0  0  0  0  0  0  0
   -3.5016    0.1441   -0.3791 C   0  0  0  0  0  0  0  0  0  0  0  0
    3.4844   -0.1744    0.3766 C   0  0  0  0  0  0  0  0  0  0  0  0
   -0.4463    0.8919   -2.3917 C   0  0  0  0  0  0  0  0  0  0  0  0
    0.7285    2.2749    0.9684 C   0  0  0  0  0  0  0  0  0  0  0  0
   -3.1051    0.8935   -2.3516 H   0  0  0  0  0  0  0  0  0  0  0  0
    3.3639    1.8160    1.1353 H   0  0  0  0  0  0  0  0  0  0  0  0
   -3.6412   -0.6123    1.6059 H   0  0  0  0  0  0  0  0  0  0  0  0
    3.3673   -2.1567   -0.3908 H   0  0  0  0  0  0  0  0  0  0  0  0
   -4.5799    0.1965   -0.4984 H   0  0  0  0  0  0  0  0  0  0  0  0
    4.5630   -0.2211    0.4958 H   0  0  0  0  0  0  0  0  0  0  0  0
    0.4202    2.4921   -3.0932 H   0  0  0  0  0  0  0  0  0  0  0  0
    1.0536    4.1955    1.0642 H   0  0  0  0  0  0  0  0  0  0  0  0
  1 23  1  0
  1 31  1  0
  2 24  1  0
  2 32  1  0
  3 23  2  0
  4 24  2  0
  5  9  1  0
  6 10  1  0
  7  9  2  0
  8 10  2  0
  9 15  1  0
 10 16  1  0
 11 12  1  0
 11 13  2  0
 11 15  1  0
 12 14  2  0
 12 16  1  0
 13 17  1  0
 13 23  1  0
 14 18  1  0
 14 24  1  0
 15 19  2  0
 16 20  2  0
 17 21  2  0
 17 25  1  0
 18 22  2  0
 18 26  1  0
 19 21  1  0
 19 27  1  0
 20 22  1  0
 20 28  1  0
 21 29  1  0
 22 30  1  0
M  CHG  4   5  -1   6  -1   9   1  10   1
M  END
>  <PUBCHEM_COMPOUND_CID>  (4) 
95234

>  <PUBCHEM_CONFORMER_RMSD>  (4) 
0.8

>  <PUBCHEM_CONFORMER_DIVERSEORDER>  (4) 
1
2

>  <PUBCHEM_MMFF94_PARTIAL_CHARGES>  (4) 
30
1 -0.65
10 0.91
13 0.09
14 0.09
15 0.13
16 0.13
17 -0.15
18 -0.15
19 -0.15
2 -0.65
20 -0.15
21 -0.15
22 -0.15
23 0.63
24 0.63
25 0.15
26 0.15
27 0.15
28 0.15
29 0.15
3 -0.57
30 0.15
31 0.5
32 0.5
4 -0.57
5 -0.52
6 -0.52
7 -0.52
8 -0.52
9 0.91

>  <PUBCHEM_EFFECTIVE_ROTOR_COUNT>  (4) 
5

>  <PUBCHEM_PHARMACOPHORE_FEATURES>  (4) 
14
1 1 acceptor
1 2 acceptor
1 3 acceptor
1 4 acceptor
1 5 acceptor
1 5 anion
1 6 acceptor
1 6 anion
1 7 acceptor
1 8 acceptor
3 1 3 23 anion
3 2 4 24 anion
6 11 13 15 17 19 21 rings
6 12 14 16 18 20 22 rings

>  <PUBCHEM_HEAVY_ATOM_COUNT>  (4) 
24

>  <PUBCHEM_ATOM_DEF_STEREO_COUNT>  (4) 
0

>  <PUBCHEM_ATOM_UDEF_STEREO_COUNT>  (4) 
0

>  <PUBCHEM_BOND_DEF_STEREO_COUNT>  (4) 
0

>  <PUBCHEM_BOND_UDEF_STEREO_COUNT>  (4) 
0

>  <PUBCHEM_ISOTOPIC_ATOM_COUNT>  (4) 
0

>  <PUBCHEM_COMPONENT_COUNT>  (4) 
1

>  <PUBCHEM_CACTVS_TAUTO_COUNT>  (4) 
1

>  <PUBCHEM_CONFORMER_ID>  (4) 
0001740200000001

>  <PUBCHEM_MMFF94_ENERGY>  (4) 
110.1807

>  <PUBCHEM_FEATURE_SELFOVERLAP>  (4) 
71.333

>  <PUBCHEM_SHAPE_FINGERPRINT>  (4) 
10863032 1 11638036972045056803
11582403 64 16377150525327556557
12035758 1 10959573971750061853
12236239 1 11097858514046035175
13965767 371 8166703511031981028
14817 1 9023469583016998993
16945 1 18334861627421726109
20511035 2 14469370960595730769
20600515 1 13992192951664361609
20905425 154 8458590588190109554
229495 10 11762159654182985114
23419403 2 14821671262573045831
23728640 28 10292091180318840461
4340502 62 18049451640814419131
5845 1 17026599917404221162
77492 1 11097858514040760423

>  <PUBCHEM_SHAPE_MULTIPOLES>  (4) 
436.99
4.01
2.74
2.6
0.02
0.22
-0.16
-0.21
0.37
-1.52
-0.18
1.31
-0.08
-1.13

>  <PUBCHEM_SHAPE_SELFOVERLAP>  (4) 
974

>  <PUBCHEM_SHAPE_VOLUME>  (4) 
230.7

>  <PUBCHEM_COORDINATE_TYPE>  (4) 
2
5
10

$$$$
