4614666
     RDKit          3D

 35 37  0  0  0  0  0  0  0  0999 V2000
    2.1194   -0.8911    2.0609 O   0  0  0  0  0  0  0  0  0  0  0  0
    3.6305   -0.5280    0.4022 O   0  0  0  0  0  0  0  0  0  0  0  0
    1.8506    1.2224   -1.3590 C   0  0  2  0  0  0  0  0  0  0  0  0
    1.3687    2.2716   -0.2878 C   0  0  2  0  0  0  0  0  0  0  0  0
   -2.2038   -2.1100    0.2549 C   0  0  2  0  0  0  0  0  0  0  0  0
   -3.0709   -0.8382    0.5875 C   0  0  2  0  0  0  0  0  0  0  0  0
    1.1602   -0.1309   -1.2736 C   0  0  0  0  0  0  0  0  0  0  0  0
   -0.8993   -1.8138   -0.4704 C   0  0  0  0  0  0  0  0  0  0  0  0
   -0.0381    2.0344    0.2414 C   0  0  0  0  0  0  0  0  0  0  0  0
   -2.2784    0.4562    0.6984 C   0  0  0  0  0  0  0  0  0  0  0  0
    1.3380   -0.9384   -0.1457 C   0  0  0  0  0  0  0  0  0  0  0  0
    0.3009   -1.7820    0.2587 C   0  0  0  0  0  0  0  0  0  0  0  0
    0.1127   -0.4255   -2.1619 C   0  0  0  0  0  0  0  0  0  0  0  0
   -0.9219   -1.2736   -1.7602 C   0  0  0  0  0  0  0  0  0  0  0  0
   -0.2075    1.4063    1.4864 C   0  0  0  0  0  0  0  0  0  0  0  0
   -1.1370    2.1431   -0.6166 C   0  0  0  0  0  0  0  0  0  0  0  0
   -1.3348    0.6149    1.7183 C   0  0  0  0  0  0  0  0  0  0  0  0
   -2.2618    1.3471   -0.3875 C   0  0  0  0  0  0  0  0  0  0  0  0
    2.4724   -0.7645    0.7539 C   0  0  0  0  0  0  0  0  0  0  0  0
    2.9403    1.1190   -1.3238 H   0  0  0  0  0  0  0  0  0  0  0  0
    1.6454    1.6485   -2.3508 H   0  0  0  0  0  0  0  0  0  0  0  0
    1.4364    3.2811   -0.7118 H   0  0  0  0  0  0  0  0  0  0  0  0
    2.0737    2.2569    0.5534 H   0  0  0  0  0  0  0  0  0  0  0  0
   -2.8024   -2.8146   -0.3354 H   0  0  0  0  0  0  0  0  0  0  0  0
   -1.9790   -2.6280    1.1964 H   0  0  0  0  0  0  0  0  0  0  0  0
   -3.6287   -1.0102    1.5162 H   0  0  0  0  0  0  0  0  0  0  0  0
   -3.8297   -0.7247   -0.1979 H   0  0  0  0  0  0  0  0  0  0  0  0
    0.3388   -2.2875    1.2214 H   0  0  0  0  0  0  0  0  0  0  0  0
   -0.0159    0.1530   -3.0740 H   0  0  0  0  0  0  0  0  0  0  0  0
   -1.8228   -1.3289   -2.3663 H   0  0  0  0  0  0  0  0  0  0  0  0
    0.6107    1.3709    2.2012 H   0  0  0  0  0  0  0  0  0  0  0  0
   -1.0476    2.6678   -1.5646 H   0  0  0  0  0  0  0  0  0  0  0  0
   -1.3567   -0.0261    2.5962 H   0  0  0  0  0  0  0  0  0  0  0  0
   -3.0167    1.2789   -1.1676 H   0  0  0  0  0  0  0  0  0  0  0  0
    2.8866   -0.7699    2.6601 H   0  0  0  0  0  0  0  0  0  0  0  0
  1 19  1  0
  1 35  1  0
  2 19  2  0
  3  4  1  0
  3  7  1  0
  3 20  1  6
  3 21  1  0
  4  9  1  0
  4 22  1  6
  4 23  1  0
  5  6  1  0
  5  8  1  0
  5 24  1  6
  5 25  1  0
  6 10  1  0
  6 26  1  1
  6 27  1  0
  7 11  2  0
  7 13  1  0
  8 12  2  0
  8 14  1  0
  9 15  2  0
  9 16  1  0
 10 17  2  0
 10 18  1  0
 11 12  1  0
 11 19  1  0
 12 28  1  0
 13 14  2  0
 13 29  1  0
 14 30  1  0
 15 17  1  0
 15 31  1  0
 16 18  2  0
 16 32  1  0
 17 33  1  0
 18 34  1  0
M  END
>  <PUBCHEM_COMPOUND_CID>  (1) 
4614666

>  <PUBCHEM_CONFORMER_RMSD>  (1) 
0.6

>  <PUBCHEM_CONFORMER_DIVERSEORDER>  (1) 
1
2

>  <PUBCHEM_MMFF94_PARTIAL_CHARGES>  (1) 
27
1 -0.65
10 -0.14
11 0.09
12 -0.15
13 -0.15
14 -0.15
15 -0.15
16 -0.15
17 -0.15
18 -0.15
19 0.63
2 -0.57
28 0.15
29 0.15
3 0.14
30 0.15
31 0.15
32 0.15
33 0.15
34 0.15
35 0.5
4 0.14
5 0.14
6 0.14
7 -0.14
8 -0.14
9 -0.14

>  <PUBCHEM_EFFECTIVE_ROTOR_COUNT>  (1) 
1.8

>  <PUBCHEM_PHARMACOPHORE_FEATURES>  (1) 
5
1 1 acceptor
1 2 acceptor
3 1 2 19 anion
6 7 8 11 12 13 14 rings
6 9 10 15 16 17 18 rings

>  <PUBCHEM_HEAVY_ATOM_COUNT>  (1) 
19

>  <PUBCHEM_ATOM_DEF_STEREO_COUNT>  (1) 
0

>  <PUBCHEM_ATOM_UDEF_STEREO_COUNT>  (1) 
0

>  <PUBCHEM_BOND_DEF_STEREO_COUNT>  (1) 
0

>  <PUBCHEM_BOND_UDEF_STEREO_COUNT>  (1) 
0

>  <PUBCHEM_ISOTOPIC_ATOM_COUNT>  (1) 
0

>  <PUBCHEM_COMPONENT_COUNT>  (1) 
1

>  <PUBCHEM_CACTVS_TAUTO_COUNT>  (1) 
1

>  <PUBCHEM_CONFORMER_ID>  (1) 
00466A0A00000001

>  <PUBCHEM_MMFF94_ENERGY>  (1) 
103.3553

>  <PUBCHEM_FEATURE_SELFOVERLAP>  (1) 
25.43

>  <PUBCHEM_SHAPE_FINGERPRINT>  (1) 
10863032 1 18114746052682617957
10948715 1 17834661708851761077
11086676 242 18270131243406602923
11578080 2 17677591202951848572
12011746 2 18266734675778569276
12423570 1 13930879265419443423
13132413 78 18411132584677762372
13172582 1 18343032072684442009
141345 1 13093618186086764273
144361 1 17698468819955028969
15775835 57 18190486984750921341
15852999 172 17836637531436642117
15881359 60 18130775759694730085
16945 1 18263371299942726517
20691752 17 17827076522314589715
20905425 154 17480313700181496175
22112679 90 18057884842969327543
22344851 12 15399396173922640753
22344851 341 17766287856692304352
23419403 2 15972074975414204809
2748010 2 17617677461644986893

>  <PUBCHEM_SHAPE_MULTIPOLES>  (1) 
379.27
3.68
2.53
1.79
0.5
0.58
-0.09
-0.77
0.98
-0.44
-0.13
0.42
-0.16
-0.5

>  <PUBCHEM_SHAPE_SELFOVERLAP>  (1) 
834.111

>  <PUBCHEM_SHAPE_VOLUME>  (1) 
199.8

>  <PUBCHEM_COORDINATE_TYPE>  (1) 
2
5
10

$$$$
4614666
     RDKit          3D

 35 37  0  0  0  0  0  0  0  0999 V2000
   -2.1194   -0.8911    2.0609 O   0  0  0  0  0  0  0  0  0  0  0  0
   -3.6305   -0.5280    0.4022 O   0  0  0  0  0  0  0  0  0  0  0  0
   -1.8506    1.2224   -1.3590 C   0  0  1  0  0  0  0  0  0  0  0  0
   -1.3687    2.2716   -0.2878 C   0  0  1  0  0  0  0  0  0  0  0  0
    2.2038   -2.1100    0.2549 C   0  0  1  0  0  0  0  0  0  0  0  0
    3.0709   -0.8382    0.5875 C   0  0  1  0  0  0  0  0  0  0  0  0
   -1.1602   -0.1309   -1.2736 C   0  0  0  0  0  0  0  0  0  0  0  0
    0.8993   -1.8138   -0.4704 C   0  0  0  0  0  0  0  0  0  0  0  0
    0.0381    2.0344    0.2414 C   0  0  0  0  0  0  0  0  0  0  0  0
    2.2784    0.4562    0.6984 C   0  0  0  0  0  0  0  0  0  0  0  0
   -1.3380   -0.9384   -0.1457 C   0  0  0  0  0  0  0  0  0  0  0  0
   -0.3009   -1.7820    0.2587 C   0  0  0  0  0  0  0  0  0  0  0  0
   -0.1127   -0.4255   -2.1619 C   0  0  0  0  0  0  0  0  0  0  0  0
    0.9219   -1.2736   -1.7602 C   0  0  0  0  0  0  0  0  0  0  0  0
    0.2075    1.4063    1.4864 C   0  0  0  0  0  0  0  0  0  0  0  0
    1.1370    2.1431   -0.6166 C   0  0  0  0  0  0  0  0  0  0  0  0
    1.3348    0.6149    1.7183 C   0  0  0  0  0  0  0  0  0  0  0  0
    2.2618    1.3471   -0.3875 C   0  0  0  0  0  0  0  0  0  0  0  0
   -2.4724   -0.7645    0.7539 C   0  0  0  0  0  0  0  0  0  0  0  0
   -2.9403    1.1190   -1.3238 H   0  0  0  0  0  0  0  0  0  0  0  0
   -1.6454    1.6485   -2.3508 H   0  0  0  0  0  0  0  0  0  0  0  0
   -1.4364    3.2811   -0.7118 H   0  0  0  0  0  0  0  0  0  0  0  0
   -2.0737    2.2569    0.5534 H   0  0  0  0  0  0  0  0  0  0  0  0
    2.8024   -2.8146   -0.3354 H   0  0  0  0  0  0  0  0  0  0  0  0
    1.9790   -2.6280    1.1964 H   0  0  0  0  0  0  0  0  0  0  0  0
    3.6287   -1.0102    1.5162 H   0  0  0  0  0  0  0  0  0  0  0  0
    3.8297   -0.7247   -0.1979 H   0  0  0  0  0  0  0  0  0  0  0  0
   -0.3388   -2.2875    1.2214 H   0  0  0  0  0  0  0  0  0  0  0  0
    0.0159    0.1530   -3.0740 H   0  0  0  0  0  0  0  0  0  0  0  0
    1.8228   -1.3289   -2.3663 H   0  0  0  0  0  0  0  0  0  0  0  0
   -0.6107    1.3709    2.2012 H   0  0  0  0  0  0  0  0  0  0  0  0
    1.0476    2.6678   -1.5646 H   0  0  0  0  0  0  0  0  0  0  0  0
    1.3567   -0.0261    2.5962 H   0  0  0  0  0  0  0  0  0  0  0  0
    3.0167    1.2789   -1.1676 H   0  0  0  0  0  0  0  0  0  0  0  0
   -2.8866   -0.7699    2.6601 H   0  0  0  0  0  0  0  0  0  0  0  0
  1 19  1  0
  1 35  1  0
  2 19  2  0
  3  4  1  0
  3  7  1  0
  3 20  1  1
  3 21  1  0
  4  9  1  0
  4 22  1  1
  4 23  1  0
  5  6  1  0
  5  8  1  0
  5 24  1  1
  5 25  1  0
  6 10  1  0
  6 26  1  6
  6 27  1  0
  7 11  2  0
  7 13  1  0
  8 12  2  0
  8 14  1  0
  9 15  2  0
  9 16  1  0
 10 17  2  0
 10 18  1  0
 11 12  1  0
 11 19  1  0
 12 28  1  0
 13 14  2  0
 13 29  1  0
 14 30  1  0
 15 17  1  0
 15 31  1  0
 16 18  2  0
 16 32  1  0
 17 33  1  0
 18 34  1  0
M  END
>  <PUBCHEM_COMPOUND_CID>  (2) 
4614666

>  <PUBCHEM_CONFORMER_RMSD>  (2) 
0.6

>  <PUBCHEM_CONFORMER_DIVERSEORDER>  (2) 
1
2

>  <PUBCHEM_MMFF94_PARTIAL_CHARGES>  (2) 
27
1 -0.65
10 -0.14
11 0.09
12 -0.15
13 -0.15
14 -0.15
15 -0.15
16 -0.15
17 -0.15
18 -0.15
19 0.63
2 -0.57
28 0.15
29 0.15
3 0.14
30 0.15
31 0.15
32 0.15
33 0.15
34 0.15
35 0.5
4 0.14
5 0.14
6 0.14
7 -0.14
8 -0.14
9 -0.14

>  <PUBCHEM_EFFECTIVE_ROTOR_COUNT>  (2) 
1.8

>  <PUBCHEM_PHARMACOPHORE_FEATURES>  (2) 
5
1 1 acceptor
1 2 acceptor
3 1 2 19 anion
6 7 8 11 12 13 14 rings
6 9 10 15 16 17 18 rings

>  <PUBCHEM_HEAVY_ATOM_COUNT>  (2) 
19

>  <PUBCHEM_ATOM_DEF_STEREO_COUNT>  (2) 
0

>  <PUBCHEM_ATOM_UDEF_STEREO_COUNT>  (2) 
0

>  <PUBCHEM_BOND_DEF_STEREO_COUNT>  (2) 
0

>  <PUBCHEM_BOND_UDEF_STEREO_COUNT>  (2) 
0

>  <PUBCHEM_ISOTOPIC_ATOM_COUNT>  (2) 
0

>  <PUBCHEM_COMPONENT_COUNT>  (2) 
1

>  <PUBCHEM_CACTVS_TAUTO_COUNT>  (2) 
1

>  <PUBCHEM_CONFORMER_ID>  (2) 
00466A0A00000001

>  <PUBCHEM_MMFF94_ENERGY>  (2) 
103.3553

>  <PUBCHEM_FEATURE_SELFOVERLAP>  (2) 
25.43

>  <PUBCHEM_SHAPE_FINGERPRINT>  (2) 
10863032 1 18114746052682617957
10948715 1 17834661708851761077
11086676 242 18270131243406602923
11578080 2 17677591202951848572
12011746 2 18266734675778569276
12423570 1 13930879265419443423
13132413 78 18411132584677762372
13172582 1 18343032072684442009
141345 1 13093618186086764273
144361 1 17698468819955028969
15775835 57 18190486984750921341
15852999 172 17836637531436642117
15881359 60 18130775759694730085
16945 1 18263371299942726517
20691752 17 17827076522314589715
20905425 154 17480313700181496175
22112679 90 18057884842969327543
22344851 12 15399396173922640753
22344851 341 17766287856692304352
23419403 2 15972074975414204809
2748010 2 17617677461644986893

>  <PUBCHEM_SHAPE_MULTIPOLES>  (2) 
379.27
3.68
2.53
1.79
0.5
0.58
-0.09
-0.77
0.98
-0.44
-0.13
0.42
-0.16
-0.5

>  <PUBCHEM_SHAPE_SELFOVERLAP>  (2) 
834.111

>  <PUBCHEM_SHAPE_VOLUME>  (2) 
199.8

>  <PUBCHEM_COORDINATE_TYPE>  (2) 
2
5
10

$$$$
4614666
     RDKit          3D

 35 37  0  0  0  0  0  0  0  0999 V2000
    2.1194    0.8911    2.0609 O   0  0  0  0  0  0  0  0  0  0  0  0
    3.6305    0.5280    0.4022 O   0  0  0  0  0  0  0  0  0  0  0  0
    1.8506   -1.2224   -1.3590 C   0  0  1  0  0  0  0  0  0  0  0  0
    1.3687   -2.2716   -0.2878 C   0  0  1  0  0  0  0  0  0  0  0  0
   -2.2038    2.1100    0.2549 C   0  0  1  0  0  0  0  0  0  0  0  0
   -3.0709    0.8382    0.5875 C   0  0  1  0  0  0  0  0  0  0  0  0
    1.1602    0.1309   -1.2736 C   0  0  0  0  0  0  0  0  0  0  0  0
   -0.8993    1.8138   -0.4704 C   0  0  0  0  0  0  0  0  0  0  0  0
   -0.0381   -2.0344    0.2414 C   0  0  0  0  0  0  0  0  0  0  0  0
   -2.2784   -0.4562    0.6984 C   0  0  0  0  0  0  0  0  0  0  0  0
    1.3380    0.9384   -0.1457 C   0  0  0  0  0  0  0  0  0  0  0  0
    0.3009    1.7820    0.2587 C   0  0  0  0  0  0  0  0  0  0  0  0
    0.1127    0.4255   -2.1619 C   0  0  0  0  0  0  0  0  0  0  0  0
   -0.9219    1.2736   -1.7602 C   0  0  0  0  0  0  0  0  0  0  0  0
   -0.2075   -1.4063    1.4864 C   0  0  0  0  0  0  0  0  0  0  0  0
   -1.1370   -2.1431   -0.6166 C   0  0  0  0  0  0  0  0  0  0  0  0
   -1.3348   -0.6149    1.7183 C   0  0  0  0  0  0  0  0  0  0  0  0
   -2.2618   -1.3471   -0.3875 C   0  0  0  0  0  0  0  0  0  0  0  0
    2.4724    0.7645    0.7539 C   0  0  0  0  0  0  0  0  0  0  0  0
    2.9403   -1.1190   -1.3238 H   0  0  0  0  0  0  0  0  0  0  0  0
    1.6454   -1.6485   -2.3508 H   0  0  0  0  0  0  0  0  0  0  0  0
    1.4364   -3.2811   -0.7118 H   0  0  0  0  0  0  0  0  0  0  0  0
    2.0737   -2.2569    0.5534 H   0  0  0  0  0  0  0  0  0  0  0  0
   -2.8024    2.8146   -0.3354 H   0  0  0  0  0  0  0  0  0  0  0  0
   -1.9790    2.6280    1.1964 H   0  0  0  0  0  0  0  0  0  0  0  0
   -3.6287    1.0102    1.5162 H   0  0  0  0  0  0  0  0  0  0  0  0
   -3.8297    0.7247   -0.1979 H   0  0  0  0  0  0  0  0  0  0  0  0
    0.3388    2.2875    1.2214 H   0  0  0  0  0  0  0  0  0  0  0  0
   -0.0159   -0.1530   -3.0740 H   0  0  0  0  0  0  0  0  0  0  0  0
   -1.8228    1.3289   -2.3663 H   0  0  0  0  0  0  0  0  0  0  0  0
    0.6107   -1.3709    2.2012 H   0  0  0  0  0  0  0  0  0  0  0  0
   -1.0476   -2.6678   -1.5646 H   0  0  0  0  0  0  0  0  0  0  0  0
   -1.3567    0.0261    2.5962 H   0  0  0  0  0  0  0  0  0  0  0  0
   -3.0167   -1.2789   -1.1676 H   0  0  0  0  0  0  0  0  0  0  0  0
    2.8866    0.7699    2.6601 H   0  0  0  0  0  0  0  0  0  0  0  0
  1 19  1  0
  1 35  1  0
  2 19  2  0
  3  4  1  0
  3  7  1  0
  3 20  1  1
  3 21  1  0
  4  9  1  0
  4 22  1  1
  4 23  1  0
  5  6  1  0
  5  8  1  0
  5 24  1  1
  5 25  1  0
  6 10  1  0
  6 26  1  6
  6 27  1  0
  7 11  2  0
  7 13  1  0
  8 12  2  0
  8 14  1  0
  9 15  2  0
  9 16  1  0
 10 17  2  0
 10 18  1  0
 11 12  1  0
 11 19  1  0
 12 28  1  0
 13 14  2  0
 13 29  1  0
 14 30  1  0
 15 17  1  0
 15 31  1  0
 16 18  2  0
 16 32  1  0
 17 33  1  0
 18 34  1  0
M  END
>  <PUBCHEM_COMPOUND_CID>  (3) 
4614666

>  <PUBCHEM_CONFORMER_RMSD>  (3) 
0.6

>  <PUBCHEM_CONFORMER_DIVERSEORDER>  (3) 
1
2

>  <PUBCHEM_MMFF94_PARTIAL_CHARGES>  (3) 
27
1 -0.65
10 -0.14
11 0.09
12 -0.15
13 -0.15
14 -0.15
15 -0.15
16 -0.15
17 -0.15
18 -0.15
19 0.63
2 -0.57
28 0.15
29 0.15
3 0.14
30 0.15
31 0.15
32 0.15
33 0.15
34 0.15
35 0.5
4 0.14
5 0.14
6 0.14
7 -0.14
8 -0.14
9 -0.14

>  <PUBCHEM_EFFECTIVE_ROTOR_COUNT>  (3) 
1.8

>  <PUBCHEM_PHARMACOPHORE_FEATURES>  (3) 
5
1 1 acceptor
1 2 acceptor
3 1 2 19 anion
6 7 8 11 12 13 14 rings
6 9 10 15 16 17 18 rings

>  <PUBCHEM_HEAVY_ATOM_COUNT>  (3) 
19

>  <PUBCHEM_ATOM_DEF_STEREO_COUNT>  (3) 
0

>  <PUBCHEM_ATOM_UDEF_STEREO_COUNT>  (3) 
0

>  <PUBCHEM_BOND_DEF_STEREO_COUNT>  (3) 
0

>  <PUBCHEM_BOND_UDEF_STEREO_COUNT>  (3) 
0

>  <PUBCHEM_ISOTOPIC_ATOM_COUNT>  (3) 
0

>  <PUBCHEM_COMPONENT_COUNT>  (3) 
1

>  <PUBCHEM_CACTVS_TAUTO_COUNT>  (3) 
1

>  <PUBCHEM_CONFORMER_ID>  (3) 
00466A0A00000001

>  <PUBCHEM_MMFF94_ENERGY>  (3) 
103.3553

>  <PUBCHEM_FEATURE_SELFOVERLAP>  (3) 
25.43

>  <PUBCHEM_SHAPE_FINGERPRINT>  (3) 
10863032 1 18114746052682617957
10948715 1 17834661708851761077
11086676 242 18270131243406602923
11578080 2 17677591202951848572
12011746 2 18266734675778569276
12423570 1 13930879265419443423
13132413 78 18411132584677762372
13172582 1 18343032072684442009
141345 1 13093618186086764273
144361 1 17698468819955028969
15775835 57 18190486984750921341
15852999 172 17836637531436642117
15881359 60 18130775759694730085
16945 1 18263371299942726517
20691752 17 17827076522314589715
20905425 154 17480313700181496175
22112679 90 18057884842969327543
22344851 12 15399396173922640753
22344851 341 17766287856692304352
23419403 2 15972074975414204809
2748010 2 17617677461644986893

>  <PUBCHEM_SHAPE_MULTIPOLES>  (3) 
379.27
3.68
2.53
1.79
0.5
0.58
-0.09
-0.77
0.98
-0.44
-0.13
0.42
-0.16
-0.5

>  <PUBCHEM_SHAPE_SELFOVERLAP>  (3) 
834.111

>  <PUBCHEM_SHAPE_VOLUME>  (3) 
199.8

>  <PUBCHEM_COORDINATE_TYPE>  (3) 
2
5
10

$$$$
4614666
     RDKit          3D

 35 37  0  0  0  0  0  0  0  0999 V2000
    2.1194   -0.8911   -2.0609 O   0  0  0  0  0  0  0  0  0  0  0  0
    3.6305   -0.5280   -0.4022 O   0  0  0  0  0  0  0  0  0  0  0  0
    1.8506    1.2224    1.3590 C   0  0  1  0  0  0  0  0  0  0  0  0
    1.3687    2.2716    0.2878 C   0  0  1  0  0  0  0  0  0  0  0  0
   -2.2038   -2.1100   -0.2549 C   0  0  1  0  0  0  0  0  0  0  0  0
   -3.0709   -0.8382   -0.5875 C   0  0  1  0  0  0  0  0  0  0  0  0
    1.1602   -0.1309    1.2736 C   0  0  0  0  0  0  0  0  0  0  0  0
   -0.8993   -1.8138    0.4704 C   0  0  0  0  0  0  0  0  0  0  0  0
   -0.0381    2.0344   -0.2414 C   0  0  0  0  0  0  0  0  0  0  0  0
   -2.2784    0.4562   -0.6984 C   0  0  0  0  0  0  0  0  0  0  0  0
    1.3380   -0.9384    0.1457 C   0  0  0  0  0  0  0  0  0  0  0  0
    0.3009   -1.7820   -0.2587 C   0  0  0  0  0  0  0  0  0  0  0  0
    0.1127   -0.4255    2.1619 C   0  0  0  0  0  0  0  0  0  0  0  0
   -0.9219   -1.2736    1.7602 C   0  0  0  0  0  0  0  0  0  0  0  0
   -0.2075    1.4063   -1.4864 C   0  0  0  0  0  0  0  0  0  0  0  0
   -1.1370    2.1431    0.6166 C   0  0  0  0  0  0  0  0  0  0  0  0
   -1.3348    0.6149   -1.7183 C   0  0  0  0  0  0  0  0  0  0  0  0
   -2.2618    1.3471    0.3875 C   0  0  0  0  0  0  0  0  0  0  0  0
    2.4724   -0.7645   -0.7539 C   0  0  0  0  0  0  0  0  0  0  0  0
    2.9403    1.1190    1.3238 H   0  0  0  0  0  0  0  0  0  0  0  0
    1.6454    1.6485    2.3508 H   0  0  0  0  0  0  0  0  0  0  0  0
    1.4364    3.2811    0.7118 H   0  0  0  0  0  0  0  0  0  0  0  0
    2.0737    2.2569   -0.5534 H   0  0  0  0  0  0  0  0  0  0  0  0
   -2.8024   -2.8146    0.3354 H   0  0  0  0  0  0  0  0  0  0  0  0
   -1.9790   -2.6280   -1.1964 H   0  0  0  0  0  0  0  0  0  0  0  0
   -3.6287   -1.0102   -1.5162 H   0  0  0  0  0  0  0  0  0  0  0  0
   -3.8297   -0.7247    0.1979 H   0  0  0  0  0  0  0  0  0  0  0  0
    0.3388   -2.2875   -1.2214 H   0  0  0  0  0  0  0  0  0  0  0  0
   -0.0159    0.1530    3.0740 H   0  0  0  0  0  0  0  0  0  0  0  0
   -1.8228   -1.3289    2.3663 H   0  0  0  0  0  0  0  0  0  0  0  0
    0.6107    1.3709   -2.2012 H   0  0  0  0  0  0  0  0  0  0  0  0
   -1.0476    2.6678    1.5646 H   0  0  0  0  0  0  0  0  0  0  0  0
   -1.3567   -0.0261   -2.5962 H   0  0  0  0  0  0  0  0  0  0  0  0
   -3.0167    1.2789    1.1676 H   0  0  0  0  0  0  0  0  0  0  0  0
    2.8866   -0.7699   -2.6601 H   0  0  0  0  0  0  0  0  0  0  0  0
  1 19  1  0
  1 35  1  0
  2 19  2  0
  3  4  1  0
  3  7  1  0
  3 20  1  6
  3 21  1  0
  4  9  1  0
  4 22  1  6
  4 23  1  0
  5  6  1  0
  5  8  1  0
  5 24  1  6
  5 25  1  0
  6 10  1  0
  6 26  1  1
  6 27  1  0
  7 11  2  0
  7 13  1  0
  8 12  2  0
  8 14  1  0
  9 15  2  0
  9 16  1  0
 10 17  2  0
 10 18  1  0
 11 12  1  0
 11 19  1  0
 12 28  1  0
 13 14  2  0
 13 29  1  0
 14 30  1  0
 15 17  1  0
 15 31  1  0
 16 18  2  0
 16 32  1  0
 17 33  1  0
 18 34  1  0
M  END
>  <PUBCHEM_COMPOUND_CID>  (4) 
4614666

>  <PUBCHEM_CONFORMER_RMSD>  (4) 
0.6

>  <PUBCHEM_CONFORMER_DIVERSEORDER>  (4) 
1
2

>  <PUBCHEM_MMFF94_PARTIAL_CHARGES>  (4) 
27
1 -0.65
10 -0.14
11 0.09
12 -0.15
13 -0.15
14 -0.15
15 -0.15
16 -0.15
17 -0.15
18 -0.15
19 0.63
2 -0.57
28 0.15
29 0.15
3 0.14
30 0.15
31 0.15
32 0.15
33 0.15
34 0.15
35 0.5
4 0.14
5 0.14
6 0.14
7 -0.14
8 -0.14
9 -0.14

>  <PUBCHEM_EFFECTIVE_ROTOR_COUNT>  (4) 
1.8

>  <PUBCHEM_PHARMACOPHORE_FEATURES>  (4) 
5
1 1 acceptor
1 2 acceptor
3 1 2 19 anion
6 7 8 11 12 13 14 rings
6 9 10 15 16 17 18 rings

>  <PUBCHEM_HEAVY_ATOM_COUNT>  (4) 
19

>  <PUBCHEM_ATOM_DEF_STEREO_COUNT>  (4) 
0

>  <PUBCHEM_ATOM_UDEF_STEREO_COUNT>  (4) 
0

>  <PUBCHEM_BOND_DEF_STEREO_COUNT>  (4) 
0

>  <PUBCHEM_BOND_UDEF_STEREO_COUNT>  (4) 
0

>  <PUBCHEM_ISOTOPIC_ATOM_COUNT>  (4) 
0

>  <PUBCHEM_COMPONENT_COUNT>  (4) 
1

>  <PUBCHEM_CACTVS_TAUTO_COUNT>  (4) 
1

>  <PUBCHEM_CONFORMER_ID>  (4) 
00466A0A00000001

>  <PUBCHEM_MMFF94_ENERGY>  (4) 
103.3553

>  <PUBCHEM_FEATURE_SELFOVERLAP>  (4) 
25.43

>  <PUBCHEM_SHAPE_FINGERPRINT>  (4) 
10863032 1 18114746052682617957
10948715 1 17834661708851761077
11086676 242 18270131243406602923
11578080 2 17677591202951848572
12011746 2 18266734675778569276
12423570 1 13930879265419443423
13132413 78 18411132584677762372
13172582 1 18343032072684442009
141345 1 13093618186086764273
144361 1 17698468819955028969
15775835 57 18190486984750921341
15852999 172 17836637531436642117
15881359 60 18130775759694730085
16945 1 18263371299942726517
20691752 17 17827076522314589715
20905425 154 17480313700181496175
22112679 90 18057884842969327543
22344851 12 15399396173922640753
22344851 341 17766287856692304352
23419403 2 15972074975414204809
2748010 2 17617677461644986893

>  <PUBCHEM_SHAPE_MULTIPOLES>  (4) 
379.27
3.68
2.53
1.79
0.5
0.58
-0.09
-0.77
0.98
-0.44
-0.13
0.42
-0.16
-0.5

>  <PUBCHEM_SHAPE_SELFOVERLAP>  (4) 
834.111

>  <PUBCHEM_SHAPE_VOLUME>  (4) 
199.8

>  <PUBCHEM_COORDINATE_TYPE>  (4) 
2
5
10

$$$$
